#	Name: ASD01813678
#	Creating user name:	WinNT
#	Creation time:	15. 06. 2019 19:30

#	Modifying user name:	WinNT
#	Modification time:	15. 06. 2019 19:30

#	Program:	/corina/corina34_cracker 3.40 0067  02.08.2006

@<TRIPOS>MOLECULE
ASD01813678
  46   49    0    0    0
SMALL
NO_CHARGES


@<TRIPOS>ATOM
   1 C1             0.0987     1.4753     0.3555 C.ar    
   2 C2             0.0803     0.0890     0.3475 C.ar    
   3 C3             1.2503    -0.6314     0.2175 C.ar    
   4 C4             2.4682     0.0345     0.0920 C.ar    
   5 C5             2.4853     1.4397     0.0998 C.ar    
   6 C6             1.2932     2.1563     0.2325 C.ar    
   7 N7             3.6440    -0.6744    -0.0375 N.pl3   
   8 C8             4.8384    -0.0818    -0.1600 C.2     
   9 C9             4.9810     1.2911    -0.1654 C.2     
  10 C10            3.7795     2.1315    -0.0338 C.2     
  11 O11            3.8524     3.3479    -0.0334 O.2     
  12 C12            6.3100     1.9036    -0.3010 C.2     
  13 O13            6.4364     3.2457    -0.3048 O.3     
  14 O14            7.2953     1.1999    -0.4098 O.2     
  15 C15            3.5837    -2.1382    -0.0406 C.3     
  16 C16            3.4403    -2.6321    -1.4571 C.ar    
  17 C17            4.5557    -2.7793    -2.2614 C.ar    
  18 N18            4.4436    -3.2100    -3.5012 N.ar    
  19 C19            3.2650    -3.5188    -4.0263 C.ar    
  20 C20            2.0994    -3.3947    -3.2725 C.ar    
  21 C21            2.1884    -2.9489    -1.9651 C.ar    
  22 F22            1.2151    -1.9819     0.2125 F       
  23 F23            1.3093     3.5072     0.2396 F       
  24 C24            3.1873    -3.9995    -5.4269 C.ar    
  25 C25            1.9477    -4.2295    -6.0285 C.ar    
  26 N26            1.8722    -4.6552    -7.2688 N.ar    
  27 C27            2.9588    -4.8827    -7.9973 C.ar    
  28 C28            4.2311    -4.6756    -7.4661 C.ar    
  29 C29            4.3531    -4.2229    -6.1647 C.ar    
  30 C30            2.8175    -5.3628    -9.3911 C.2     
  31 O31            3.8070    -5.5734   -10.0644 O.2     
  32 N32            1.5916    -5.5662    -9.9128 N.am    
  33 H33           -0.8258     2.0247     0.4539 H       
  34 H34           -0.8601    -0.4331     0.4444 H       
  35 H35            5.7196    -0.6986    -0.2576 H       
  36 H36            7.3306     3.6022    -0.3965 H       
  37 H37            4.4990    -2.5405     0.3935 H       
  38 H38            2.7272    -2.4678     0.5476 H       
  39 H39            5.5319    -2.5374    -1.8678 H       
  40 H40            1.1406    -3.6462    -3.7013 H       
  41 H41            1.3026    -2.8427    -1.3565 H       
  42 H42            1.0414    -4.0557    -5.4675 H       
  43 H43            5.1104    -4.8628    -8.0645 H       
  44 H44            5.3257    -4.0536    -5.7269 H       
  45 H45            0.8018    -5.3981    -9.3753 H       
  46 H46            1.4991    -5.8806   -10.8257 H       
@<TRIPOS>BOND
   1    1    2 ar
   2    1    6 ar
   3    1   33 1
   4    2    3 ar
   5    2   34 1
   6    3   22 1
   7    3    4 ar
   8    4    5 ar
   9    4    7 1
  10    5    6 ar
  11    5   10 1
  12    6   23 1
  13    7    8 1
  14    7   15 1
  15    8    9 2
  16    8   35 1
  17    9   10 1
  18    9   12 1
  19   10   11 2
  20   12   13 1
  21   12   14 2
  22   13   36 1
  23   15   16 1
  24   15   37 1
  25   15   38 1
  26   16   17 ar
  27   16   21 ar
  28   17   18 ar
  29   17   39 1
  30   18   19 ar
  31   19   20 ar
  32   19   24 1
  33   20   21 ar
  34   20   40 1
  35   21   41 1
  36   24   25 ar
  37   24   29 ar
  38   25   26 ar
  39   25   42 1
  40   26   27 ar
  41   27   28 ar
  42   27   30 1
  43   28   29 ar
  44   28   43 1
  45   29   44 1
  46   30   31 2
  47   30   32 am
  48   32   45 1
  49   32   46 1

#	End of record

