#	Name: ASD01881659
#	Creating user name:	WinNT
#	Creation time:	15. 06. 2019 19:43

#	Modifying user name:	WinNT
#	Modification time:	15. 06. 2019 19:43

#	Program:	/corina/corina34_cracker 3.40 0067  02.08.2006

@<TRIPOS>MOLECULE
ASD01881659
  54   57    0    0    0
SMALL
NO_CHARGES


@<TRIPOS>ATOM
   1 C1             2.7803     1.0933    -0.0389 C.2     
   2 N2             2.5568    -0.2045    -0.2755 N.am    
   3 C3             1.2689    -0.4364    -0.5975 C.2     
   4 C4             0.5861     0.9163    -0.5561 C.3     
   5 N5             1.6703     1.8400    -0.1804 N.am    
   6 O6             3.8639     1.5462     0.2739 O.2     
   7 O7             0.7620    -1.5047    -0.8652 O.2     
   8 C8             1.5609     3.2893     0.0041 C.3     
   9 C9             0.5637     3.5868     1.1257 C.3     
  10 C10            1.0813     3.9238    -1.2759 C.ar    
  11 C11            1.8187     4.9376    -1.8608 C.ar    
  12 C12            1.3845     5.5224    -3.0329 C.ar    
  13 C13            0.2002     5.0896    -3.6275 C.ar    
  14 C14           -0.5387     4.0676    -3.0335 C.ar    
  15 C15           -0.0917     3.4864    -1.8644 C.ar    
  16 C16           -1.8584     7.3083    -8.4693 C.2     
  17 N17           -2.9803     6.5870    -8.6348 N.am    
  18 C18           -3.0967     5.6336    -7.5256 C.3     
  19 C19           -1.8923     5.8606    -6.6462 C.ar    
  20 C20           -1.4582     5.2794    -5.4805 C.ar    
  21 C21           -0.2719     5.7143    -4.8867 C.ar    
  22 C22            0.4687     6.7377    -5.4791 C.ar    
  23 C23            0.0334     7.3202    -6.6475 C.ar    
  24 C24           -1.1541     6.8866    -7.2443 C.ar    
  25 C25           -3.9310     6.7298    -9.7402 C.3     
  26 C26           -3.5224     5.8032   -10.8871 C.3     
  27 F27           -3.5239     4.4779   -10.4390 F       
  28 F28           -4.4303     5.9396   -11.9428 F       
  29 F29           -2.2395     6.1449   -11.3283 F       
  30 O30           -1.4760     8.1807    -9.2247 O.2     
  31 C31            3.5852    -1.2447    -0.1953 C.3     
  32 C32            3.6317    -1.8073     1.2268 C.3     
  33 H33            0.1854     1.1738    -1.5366 H       
  34 H34           -0.2029     0.9248     0.1959 H       
  35 H35            2.5368     3.6966     0.2681 H       
  36 H36            0.9106     3.1278     2.0515 H       
  37 H37            0.4823     4.6650     1.2629 H       
  38 H38           -0.4123     3.1794     0.8616 H       
  39 H39            2.7358     5.2723    -1.3990 H       
  40 H40            1.9608     6.3140    -3.4885 H       
  41 H41           -1.4569     3.7283    -3.4898 H       
  42 H42           -0.6608     2.6912    -1.4059 H       
  43 H43           -4.0116     5.8223    -6.9639 H       
  44 H44           -3.0947     4.6127    -7.9074 H       
  45 H45           -2.0330     4.4871    -5.0241 H       
  46 H46            1.3861     7.0740    -5.0191 H       
  47 H47            0.6089     8.1124    -7.1032 H       
  48 H48           -4.9305     6.4636    -9.3965 H       
  49 H49           -3.9298     7.7624   -10.0893 H       
  50 H50            3.3473    -2.0456    -0.8953 H       
  51 H51            4.5552    -0.8169    -0.4486 H       
  52 H52            3.8697    -1.0064     1.9268 H       
  53 H53            2.6617    -2.2351     1.4802 H       
  54 H54            4.3969    -2.5812     1.2865 H       
@<TRIPOS>BOND
   1    1    2 am
   2    1    5 am
   3    1    6 2
   4    2    3 am
   5    2   31 1
   6    3    4 1
   7    3    7 2
   8    4    5 1
   9    4   33 1
  10    4   34 1
  11    5    8 1
  12    8    9 1
  13    8   10 1
  14    8   35 1
  15    9   36 1
  16    9   37 1
  17    9   38 1
  18   10   11 ar
  19   10   15 ar
  20   11   12 ar
  21   11   39 1
  22   12   13 ar
  23   12   40 1
  24   13   14 ar
  25   13   21 1
  26   14   15 ar
  27   14   41 1
  28   15   42 1
  29   16   17 am
  30   16   24 1
  31   16   30 2
  32   17   18 1
  33   17   25 1
  34   18   19 1
  35   18   43 1
  36   18   44 1
  37   19   20 ar
  38   19   24 ar
  39   20   21 ar
  40   20   45 1
  41   21   22 ar
  42   22   23 ar
  43   22   46 1
  44   23   24 ar
  45   23   47 1
  46   25   26 1
  47   25   48 1
  48   25   49 1
  49   26   27 1
  50   26   28 1
  51   26   29 1
  52   31   32 1
  53   31   50 1
  54   31   51 1
  55   32   52 1
  56   32   53 1
  57   32   54 1

#	End of record

