#	Name: ASD03330415
#	Creating user name:	WinNT
#	Creation time:	15. 06. 2019 20:37

#	Modifying user name:	WinNT
#	Modification time:	15. 06. 2019 20:37

#	Program:	/corina/corina34_cracker 3.40 0067  02.08.2006

@<TRIPOS>MOLECULE
ASD03330415
  47   48    0    0    0
SMALL
NO_CHARGES


@<TRIPOS>ATOM
   1 C1            -0.3015     2.1330    -0.7640 C.3     
   2 N2            -0.1357     0.6996    -0.4855 N.3     
   3 C3             0.3242    -0.0261    -1.6834 C.3     
   4 C4             1.5103     0.7121    -2.2474 C.2     
   5 N5             1.8415     1.9904    -1.9009 N.pl3   
   6 C6             1.0728     2.7909    -0.9432 C.3     
   7 C7             2.4296     0.2938    -3.1495 C.2     
   8 N8             3.3079     1.3165    -3.3386 N.2     
   9 C9             2.9536     2.3267    -2.5906 C.2     
  10 Br10           3.8506     3.9883    -2.4890 Br      
  11 C11            2.4717    -1.0249    -3.8047 C.2     
  12 O12            1.6239    -1.8586    -3.5487 O.2     
  13 C13            3.4917    -2.6191    -5.3394 C.3     
  14 N14            3.4498    -1.3077    -4.6879 N.am    
  15 C15            3.4131    -3.8276    -3.1541 C.3     
  16 C16            4.2216    -3.6146    -4.4355 C.3     
  17 C17            4.3778    -4.9489    -5.1677 C.3     
  18 C18            4.2218    -2.5044    -6.6528 C.2     
  19 C19            5.6038    -3.0628    -4.0806 C.3     
  20 C20           -1.3790     0.1177     0.0376 C.3     
  21 O21            4.8099    -1.4812    -6.9323 O.2     
  22 N22            4.2212    -3.5388    -7.5167 N.am    
  23 C23            4.9971    -3.4580    -8.7568 C.3     
  24 H24           -0.8854     2.2598    -1.6756 H       
  25 H25           -0.8236     2.6057     0.0680 H       
  26 H26            0.6170    -1.0399    -1.4102 H       
  27 H27           -0.4751    -0.0595    -2.4236 H       
  28 H28            0.9486     3.8037    -1.3264 H       
  29 H29            1.5941     2.8203     0.0136 H       
  30 H30            2.4749    -2.9686    -5.5183 H       
  31 H31            4.1259    -0.6428    -4.8921 H       
  32 H32            2.4284    -4.2207    -3.4069 H       
  33 H33            3.9331    -4.5368    -2.5101 H       
  34 H34            3.3019    -2.8770    -2.6324 H       
  35 H35            3.3956    -5.3959    -5.3218 H       
  36 H36            4.8556    -4.7800    -6.1327 H       
  37 H37            4.9933    -5.6214    -4.5702 H       
  38 H38            6.1238    -3.7720    -3.4366 H       
  39 H39            6.1798    -2.9110    -4.9935 H       
  40 H40            5.4926    -2.1122    -3.5589 H       
  41 H41           -2.1909     0.3031    -0.6656 H       
  42 H42           -1.2502    -0.9566     0.1689 H       
  43 H43           -1.6184     0.5750     0.9977 H       
  44 H44            3.7071    -4.3369    -7.3174 H       
  45 H45            6.0509    -3.3154    -8.5174 H       
  46 H46            4.8747    -4.3815    -9.3228 H       
  47 H47            4.6428    -2.6169    -9.3528 H       
@<TRIPOS>BOND
   1    1    2 1
   2    1    6 1
   3    1   24 1
   4    1   25 1
   5    2    3 1
   6    2   20 1
   7    3    4 1
   8    3   26 1
   9    3   27 1
  10    4    5 1
  11    4    7 2
  12    5    6 1
  13    5    9 1
  14    6   28 1
  15    6   29 1
  16    7    8 1
  17    7   11 1
  18    8    9 2
  19    9   10 1
  20   11   12 2
  21   11   14 am
  22   13   14 1
  23   13   18 1
  24   13   16 1
  25   13   30 1
  26   14   31 1
  27   15   16 1
  28   15   32 1
  29   15   33 1
  30   15   34 1
  31   16   19 1
  32   16   17 1
  33   17   35 1
  34   17   36 1
  35   17   37 1
  36   18   21 2
  37   18   22 am
  38   19   38 1
  39   19   39 1
  40   19   40 1
  41   20   41 1
  42   20   42 1
  43   20   43 1
  44   22   23 1
  45   22   44 1
  46   23   45 1
  47   23   46 1
  48   23   47 1

#	End of record

