#	Name: ASD04880095
#	Creating user name:	WinNT
#	Creation time:	15. 06. 2019 20:52

#	Modifying user name:	WinNT
#	Modification time:	15. 06. 2019 20:52

#	Program:	/corina/corina34_cracker 3.40 0067  02.08.2006

@<TRIPOS>MOLECULE
ASD04880095
  50   53    0    0    0
SMALL
NO_CHARGES


@<TRIPOS>ATOM
   1 C1            -0.0144     1.2118     0.0087 C.2     
   2 O2             0.0572    -0.0019    -0.0143 O.2     
   3 C3             1.2191     2.0256    -0.0195 C.ar    
   4 C4             2.4660     1.4083     0.0722 C.ar    
   5 C5             3.6219     2.1814     0.0449 C.ar    
   6 C6             3.5282     3.5681    -0.0739 C.ar    
   7 C7             2.2909     4.1751    -0.1644 C.ar    
   8 C8             1.1391     3.4142    -0.1439 C.ar    
   9 S9             7.4325     1.0694     0.2620 S.3     
  10 C10            6.3152    -0.2220     0.3333 C.2     
  11 N11            5.1083     0.2213     0.2569 N.2     
  12 C12            4.9524     1.5323     0.1425 C.2     
  13 C13            6.1094     2.2242     0.1225 C.2     
  14 C14            6.6897    -1.6757     0.4663 C.3     
  15 N15           -1.2188     1.8150     0.0543 N.am    
  16 N16           -1.4346     3.1842     0.1964 N.2     
  17 C17           -2.6780     3.5222     0.2133 C.2     
  18 C18           -3.5389     2.2876     0.0689 C.3     
  19 C19           -2.5205     1.1358    -0.0443 C.3     
  20 C20           -3.1832     4.9000     0.3519 C.ar    
  21 C21           -2.2872     5.9654     0.4783 C.ar    
  22 C22           -2.7663     7.2550     0.6080 C.ar    
  23 C23           -4.1397     7.4912     0.6126 C.ar    
  24 C24           -5.0291     6.4344     0.4872 C.ar    
  25 C25           -4.5584     5.1450     0.3515 C.ar    
  26 O26           -4.6089     8.7606     0.7407 O.3     
  27 C27           -6.0277     8.9312     0.7376 C.3     
  28 O28           -1.8973     8.2939     0.7316 O.3     
  29 C29           -0.5036     7.9788     0.7194 C.3     
  30 H30            2.5339     0.3344     0.1644 H       
  31 H31            4.4255     4.1687    -0.0947 H       
  32 H32            2.2243     5.2491    -0.2562 H       
  33 H33            0.1745     3.8940    -0.2195 H       
  34 H34            6.2076     3.2963     0.0368 H       
  35 H35            7.7748    -1.7688     0.5096 H       
  36 H36            6.2535    -2.0812     1.3792 H       
  37 H37            6.3116    -2.2284    -0.3937 H       
  38 H38           -4.1720     2.1582     0.9466 H       
  39 H39           -4.1447     2.3475    -0.8353 H       
  40 H40           -2.6169     0.6289    -1.0044 H       
  41 H41           -2.6486     0.4310     0.7773 H       
  42 H42           -1.2231     5.7810     0.4749 H       
  43 H43           -6.0927     6.6220     0.4912 H       
  44 H44           -5.2531     4.3244     0.2492 H       
  45 H45           -6.4360     8.5616    -0.2030 H       
  46 H46           -6.4625     8.3731     1.5668 H       
  47 H47           -6.2666     9.9891     0.8467 H       
  48 H48            0.0770     8.8951     0.8257 H       
  49 H49           -0.2758     7.3064     1.5466 H       
  50 H50           -0.2488     7.4945    -0.2232 H       
@<TRIPOS>BOND
   1    1    2 2
   2    1    3 1
   3    1   15 am
   4    3    4 ar
   5    3    8 ar
   6    4    5 ar
   7    4   30 1
   8    5    6 ar
   9    5   12 1
  10    6    7 ar
  11    6   31 1
  12    7    8 ar
  13    7   32 1
  14    8   33 1
  15    9   10 1
  16    9   13 1
  17   10   11 2
  18   10   14 1
  19   11   12 1
  20   12   13 2
  21   13   34 1
  22   14   35 1
  23   14   36 1
  24   14   37 1
  25   15   16 1
  26   15   19 1
  27   16   17 2
  28   17   18 1
  29   17   20 1
  30   18   19 1
  31   18   38 1
  32   18   39 1
  33   19   40 1
  34   19   41 1
  35   20   21 ar
  36   20   25 ar
  37   21   22 ar
  38   21   42 1
  39   22   23 ar
  40   22   28 1
  41   23   24 ar
  42   23   26 1
  43   24   25 ar
  44   24   43 1
  45   25   44 1
  46   26   27 1
  47   27   45 1
  48   27   46 1
  49   27   47 1
  50   28   29 1
  51   29   48 1
  52   29   49 1
  53   29   50 1

#	End of record

