#	Name: ASD01913479
#	Creating user name:	WinNT
#	Creation time:	15. 06. 2019 20:01

#	Modifying user name:	WinNT
#	Modification time:	15. 06. 2019 20:01

#	Program:	/corina/corina34_cracker 3.40 0067  02.08.2006

@<TRIPOS>MOLECULE
ASD01913479
  54   58    0    0    0
SMALL
NO_CHARGES


@<TRIPOS>ATOM
   1 C1             0.0901     1.4549     0.3150 C.ar    
   2 C2             0.0490    -0.0130     0.1343 C.2     
   3 N3            -1.0124    -0.8155     0.3819 N.pl3   
   4 N4            -0.6028    -2.1224     0.0718 N.2     
   5 C5             0.6461    -2.0459    -0.3347 C.2     
   6 N6             1.0364    -0.7669    -0.3008 N.2     
   7 C7             1.4842    -3.1921    -0.7660 C.ar    
   8 C8             2.7989    -2.9808    -1.1766 C.ar    
   9 C9             3.5748    -4.0494    -1.5764 C.ar    
  10 C10            3.0484    -5.3310    -1.5703 C.ar    
  11 C11            1.7416    -5.5454    -1.1633 C.ar    
  12 C12            0.9606    -4.4833    -0.7560 C.ar    
  13 C13           -2.3282    -0.4024     0.8761 C.3     
  14 C14           -3.2439    -0.1406    -0.2917 C.2     
  15 N15           -4.5146     0.2539    -0.0765 N.am    
  16 O16           -2.8375    -0.2848    -1.4253 O.2     
  17 F17            3.8115    -6.3744    -1.9629 F       
  18 C18           -5.0364     0.4374     1.2832 C.3     
  19 C19            1.3155     2.1115     0.4337 C.ar    
  20 C20           -1.0962     2.1879     0.3614 C.ar    
  21 C21           -1.0524     3.5561     0.5294 C.ar    
  22 C22            0.1671     4.2029     0.6522 C.ar    
  23 C23            1.3484     3.4800     0.6014 C.ar    
  24 F24            0.2047     5.5434     0.8162 F       
  25 C25           -6.4079    -0.1755     1.3821 C.ar    
  26 C26           -7.1132    -0.5973     0.2756 C.ar    
  27 C27           -6.5712    -0.5011    -1.1243 C.3     
  28 C28           -5.4320     0.5235    -1.1959 C.3     
  29 C29           -6.9856    -0.3203     2.6371 C.ar    
  30 N30           -8.1924    -0.8504     2.7374 N.ar    
  31 C31           -8.8475    -1.2392     1.6556 C.ar    
  32 N32           -8.3241    -1.1173     0.4486 N.ar    
  33 O33          -10.0845    -1.7750     1.7887 O.3     
  34 C34          -10.6048    -1.8847     3.1151 C.3     
  35 H35            3.2098    -1.9821    -1.1823 H       
  36 H36            4.5939    -3.8865    -1.8948 H       
  37 H37            1.3349    -6.5459    -1.1607 H       
  38 H38           -0.0579    -4.6514    -0.4385 H       
  39 H39           -2.7481    -1.1940     1.4968 H       
  40 H40           -2.2249     0.5071     1.4679 H       
  41 H41           -4.3698    -0.0470     1.9966 H       
  42 H42           -5.0973     1.5022     1.5083 H       
  43 H43            2.2366     1.5490     0.3946 H       
  44 H44           -2.0470     1.6848     0.2655 H       
  45 H45           -1.9701     4.1245     0.5651 H       
  46 H46            2.2963     3.9887     0.6975 H       
  47 H47           -6.1981    -1.4778    -1.4326 H       
  48 H48           -7.3709    -0.1941    -1.7984 H       
  49 H49           -5.8377     1.5317    -1.1119 H       
  50 H50           -4.9002     0.4174    -2.1414 H       
  51 H51           -6.4539    -0.0033     3.5221 H       
  52 H52           -9.9465    -2.5154     3.7125 H       
  53 H53          -10.6650    -0.8936     3.5648 H       
  54 H54          -11.5996    -2.3286     3.0796 H       
@<TRIPOS>BOND
   1    1    2 1
   2    1   19 ar
   3    1   20 ar
   4    2    3 1
   5    2    6 2
   6    3    4 1
   7    3   13 1
   8    4    5 2
   9    5    6 1
  10    5    7 1
  11    7    8 ar
  12    7   12 ar
  13    8    9 ar
  14    8   35 1
  15    9   10 ar
  16    9   36 1
  17   10   11 ar
  18   10   17 1
  19   11   12 ar
  20   11   37 1
  21   12   38 1
  22   13   14 1
  23   13   39 1
  24   13   40 1
  25   14   15 am
  26   14   16 2
  27   15   18 1
  28   15   28 1
  29   18   25 1
  30   18   41 1
  31   18   42 1
  32   19   23 ar
  33   19   43 1
  34   20   21 ar
  35   20   44 1
  36   21   22 ar
  37   21   45 1
  38   22   23 ar
  39   22   24 1
  40   23   46 1
  41   25   26 ar
  42   25   29 ar
  43   26   27 1
  44   26   32 ar
  45   27   28 1
  46   27   47 1
  47   27   48 1
  48   28   49 1
  49   28   50 1
  50   29   30 ar
  51   29   51 1
  52   30   31 ar
  53   31   32 ar
  54   31   33 1
  55   33   34 1
  56   34   52 1
  57   34   53 1
  58   34   54 1

#	End of record

