#	Name: ASD01148581
#	Creating user name:	WinNT
#	Creation time:	15. 06. 2019 19:02

#	Modifying user name:	WinNT
#	Modification time:	15. 06. 2019 19:02

#	Program:	/corina/corina34_cracker 3.40 0067  02.08.2006

@<TRIPOS>MOLECULE
ASD01148581
  54   58    0    0    0
SMALL
NO_CHARGES


@<TRIPOS>ATOM
   1 C1            -0.0170     1.4364    -0.0252 C.ar    
   2 C2             0.0191     0.0537    -0.0359 C.ar    
   3 C3            -1.1595    -0.6684    -0.0202 C.ar    
   4 C4            -2.3740    -0.0090     0.0060 C.ar    
   5 C5            -2.4108     1.3731     0.0167 C.ar    
   6 C6            -1.2330     2.0960     0.0064 C.ar    
   7 C7            -3.7353     2.0913     0.0454 C.3     
   8 O8            -4.7239     1.3223     0.7601 O.3     
   9 C9            -3.6510     3.3744     0.9060 C.3     
  10 C10           -4.1234     2.8922     2.2643 C.2     
  11 N11           -4.7047     1.7486     2.1080 N.2     
  12 C12           -3.9492     3.6045     3.5417 C.ar    
  13 C13           -4.4555     3.0231     4.7826 C.ar    
  14 C14           -3.2978     4.8298     3.5751 C.ar    
  15 C15           -3.1203     5.5205     4.7606 C.ar    
  16 C16           -3.5859     5.0180     5.9680 C.ar    
  17 C17           -4.2741     3.7295     5.9952 C.ar    
  18 C18           -3.3821     5.7765     7.2151 C.2     
  19 O19           -3.8827     5.3867     8.2524 O.2     
  20 N20           -2.6408     6.9020     7.2057 N.am    
  21 C21           -4.7599     3.1840     7.1901 C.ar    
  22 C22           -5.1133     1.7866     4.7971 C.ar    
  23 C23           -4.2116     2.4124    -1.3727 C.3     
  24 F24           -4.3442     1.2249    -2.1003 F       
  25 F25           -5.4486     3.0633    -1.3130 F       
  26 F26           -3.2776     3.2428    -2.0015 F       
  27 Cl27           1.4628     2.3439    -0.0442 Cl      
  28 C28           -2.4489     7.6164     8.3803 C.ar    
  29 N29           -1.7177     8.7203     8.3532 N.ar    
  30 N30           -3.0058     7.1807     9.5000 N.ar    
  31 C31           -2.8429     7.8375    10.6365 C.ar    
  32 C32           -2.0788     8.9940    10.6453 C.ar    
  33 C33           -1.5151     9.4245     9.4543 C.ar    
  34 C34           -5.5696     1.2805     5.9778 C.ar    
  35 C35           -5.3960     1.9782     7.1701 C.ar    
  36 C36           -1.1203    -2.1749    -0.0324 C.3     
  37 F37            0.2101    -2.6065    -0.0595 F       
  38 F38           -1.7469    -2.6669     1.1176 F       
  39 F39           -1.7878    -2.6496    -1.1665 F       
  40 H40            0.9680    -0.4617    -0.0568 H       
  41 H41           -3.2946    -0.5736     0.0179 H       
  42 H42           -1.2619     3.1756     0.0147 H       
  43 H43           -2.6246     3.7374     0.9598 H       
  44 H44           -4.3154     4.1458     0.5166 H       
  45 H45           -2.9211     5.2529     2.6556 H       
  46 H46           -2.6080     6.4712     4.7464 H       
  47 H47           -2.2415     7.2129     6.3782 H       
  48 H48           -4.6312     3.7150     8.1217 H       
  49 H49           -5.2585     1.2377     3.8784 H       
  50 H50           -3.2998     7.4774    11.5464 H       
  51 H51           -1.9294     9.5498    11.5592 H       
  52 H52           -0.9144    10.3216     9.4267 H       
  53 H53           -6.0767     0.3270     5.9879 H       
  54 H54           -5.7699     1.5582     8.0921 H       
@<TRIPOS>BOND
   1    1    2 ar
   2    1   27 1
   3    1    6 ar
   4    2    3 ar
   5    2   40 1
   6    3    4 ar
   7    3   36 1
   8    4    5 ar
   9    4   41 1
  10    5    6 ar
  11    5    7 1
  12    6   42 1
  13    7    8 1
  14    7    9 1
  15    7   23 1
  16    8   11 1
  17    9   10 1
  18    9   43 1
  19    9   44 1
  20   10   11 2
  21   10   12 1
  22   12   13 ar
  23   12   14 ar
  24   13   22 ar
  25   13   17 ar
  26   14   15 ar
  27   14   45 1
  28   15   16 ar
  29   15   46 1
  30   16   17 ar
  31   16   18 1
  32   17   21 ar
  33   18   19 2
  34   18   20 am
  35   20   28 1
  36   20   47 1
  37   21   35 ar
  38   21   48 1
  39   22   34 ar
  40   22   49 1
  41   23   24 1
  42   23   25 1
  43   23   26 1
  44   28   29 ar
  45   28   30 ar
  46   29   33 ar
  47   30   31 ar
  48   31   32 ar
  49   31   50 1
  50   32   33 ar
  51   32   51 1
  52   33   52 1
  53   34   35 ar
  54   34   53 1
  55   35   54 1
  56   36   37 1
  57   36   38 1
  58   36   39 1

#	End of record

