#	Name: ASD00843330
#	Creating user name:	WinNT
#	Creation time:	15. 06. 2019 18:46

#	Modifying user name:	WinNT
#	Modification time:	15. 06. 2019 18:46

#	Program:	/corina/corina34_cracker 3.40 0067  02.08.2006

@<TRIPOS>MOLECULE
ASD00843330
  97  102    0    0    0
SMALL
NO_CHARGES


@<TRIPOS>ATOM
   1 N1             0.8886     1.0184    -0.4083 N.ar    
   2 C2             1.0525    -0.2736    -0.6378 C.ar    
   3 C3             0.8998    -1.1994     0.3866 C.ar    
   4 C4             0.5731    -0.7524     1.6548 C.ar    
   5 C5             0.4098     0.6118     1.8544 C.ar    
   6 C6             0.5770     1.4748     0.7900 C.ar    
   7 C7             1.0870    -2.6708     0.1203 C.3     
   8 C8             0.7282    -3.4820     1.3471 C.2     
   9 C9             0.2429    -3.1092    -1.0781 C.3     
  10 C10           -1.1953    -2.7221    -0.8481 C.2     
  11 N11           -2.1453    -3.1088    -1.7224 N.am    
  12 O12           -1.4978    -2.0627     0.1238 O.2     
  13 C13           -3.5356    -2.6512    -1.5778 C.3     
  14 C14           -3.9999    -2.0734    -2.9190 C.3     
  15 N15           -3.7799    -3.0666    -3.9788 N.3     
  16 C16           -2.3511    -3.3688    -4.1376 C.3     
  17 C17           -1.8180    -3.9947    -2.8499 C.3     
  18 C18           -4.3679    -2.6202    -5.2488 C.3     
  19 C19           -4.0130    -3.6171    -6.3554 C.3     
  20 C20           -4.6785    -3.1796    -7.6622 C.3     
  21 N21           -6.1342    -3.1243    -7.4770 N.3     
  22 C22           -6.5020    -2.1390    -6.4522 C.3     
  23 C23           -5.8909    -2.5455    -5.1093 C.3     
  24 C24           -6.8161    -2.8422    -8.7472 C.3     
  25 O25           -0.3564    -3.5282     1.8879 O.2     
  26 N26            1.8360    -4.1415     1.7241 N.am    
  27 C27            2.5472    -2.9857    -0.1126 C.ar    
  28 C28            2.9200    -3.8749     0.8925 C.ar    
  29 C29            3.4491    -2.5699    -1.0591 C.ar    
  30 C30            4.7659    -3.0421    -1.0206 C.ar    
  31 C31            5.1479    -3.9362    -0.0131 C.ar    
  32 C32            4.2319    -4.3474     0.9314 C.ar    
  33 F33            6.4167    -4.3979     0.0327 F       
  34 C34            1.4906    -6.7711     2.4593 C.ar    
  35 C35            0.2182    -7.0296     1.9712 C.ar    
  36 C36            2.4349    -7.7793     2.4916 C.ar    
  37 C37            2.1125    -9.0446     2.0376 C.ar    
  38 C38            0.8447    -9.3049     1.5505 C.ar    
  39 C39           -0.1030    -8.3006     1.5166 C.ar    
  40 H40            0.5953   -10.2943     1.1965 H       
  41 O41           -0.7125    -6.0398     1.9388 O.3     
  42 C42           -2.0016    -6.3781     1.4233 C.3     
  43 C43           -2.9073    -5.1457     1.4659 C.3     
  44 C44           -8.3303    -2.9156    -8.5404 C.3     
  45 C45           -6.4347    -1.4417    -9.2309 C.3     
  46 S46            1.9046    -5.1566     3.0308 S.o2    
  47 O47            3.2682    -5.2087     3.4273 O.2     
  48 O48            0.8561    -4.7588     3.9034 O.2     
  49 O49            1.3723    -0.6992    -1.8858 O.3     
  50 C50            1.4649     0.2963    -2.9068 C.3     
  51 C51            1.9311    -0.3530    -4.2114 C.3     
  52 F52            3.1428    -1.0178    -3.9945 F       
  53 F53            0.9677    -1.2694    -4.6464 F       
  54 C54            5.7149    -2.6147    -2.0041 C.1     
  55 N55            6.4678    -2.2756    -2.7843 N.1     
  56 H56            0.4476    -1.4488     2.4706 H       
  57 H57            0.1544     0.9937     2.8318 H       
  58 H58            0.4515     2.5369     0.9400 H       
  59 H59            0.6110    -2.6201    -1.9801 H       
  60 H60            0.3137    -4.1904    -1.1964 H       
  61 H61           -4.1712    -3.4926    -1.3019 H       
  62 H62           -3.5893    -1.8806    -0.8088 H       
  63 H63           -5.0610    -1.8306    -2.8626 H       
  64 H64           -3.4312    -1.1708    -3.1426 H       
  65 H65           -2.2165    -4.0654    -4.9651 H       
  66 H66           -1.8054    -2.4481    -4.3443 H       
  67 H67           -0.7370    -4.1149    -2.9214 H       
  68 H68           -2.2876    -4.9658    -2.6931 H       
  69 H69           -3.9761    -1.6360    -5.5057 H       
  70 H70           -2.9315    -3.6430    -6.4887 H       
  71 H71           -4.3701    -4.6094    -6.0796 H       
  72 H72           -4.3106    -2.1932    -7.9446 H       
  73 H73           -4.4394    -3.8952    -8.4489 H       
  74 H74           -6.1256    -1.1575    -6.7403 H       
  75 H75           -7.5874    -2.0988    -6.3600 H       
  76 H76           -6.2776    -3.5208    -4.8138 H       
  77 H77           -6.1511    -1.8057    -4.3522 H       
  78 H78           -6.5151    -3.5785    -9.4925 H       
  79 H79            3.1435    -1.8803    -1.8320 H       
  80 H80            4.5319    -5.0373     1.7062 H       
  81 H81            3.4257    -7.5785     2.8715 H       
  82 H82            2.8522    -9.8311     2.0630 H       
  83 H83           -1.0932    -8.5046     1.1368 H       
  84 H84           -1.9026    -6.7208     0.3934 H       
  85 H85           -2.4387    -7.1713     2.0298 H       
  86 H86           -3.8906    -5.4037     1.0727 H       
  87 H87           -3.0063    -4.8030     2.4959 H       
  88 H88           -2.4702    -4.3524     0.8595 H       
  89 H89           -8.8363    -2.7063    -9.4829 H       
  90 H90           -8.6021    -3.9133    -8.1959 H       
  91 H91           -8.6313    -2.1793    -7.7951 H       
  92 H92           -5.3559    -1.3895    -9.3782 H       
  93 H93           -6.9407    -1.2324   -10.1733 H       
  94 H94           -6.7357    -0.7054    -8.4856 H       
  95 H95            0.4873     0.7540    -3.0578 H       
  96 H96            2.1812     1.0606    -2.6051 H       
  97 H97            2.0697     0.4165    -4.9709 H       
@<TRIPOS>BOND
   1    1    2 ar
   2    1    6 ar
   3    2    3 ar
   4    2   49 1
   5    3    4 ar
   6    3    7 1
   7    4    5 ar
   8    4   56 1
   9    5    6 ar
  10    5   57 1
  11    6   58 1
  12    7    8 1
  13    7    9 1
  14    7   27 1
  15    8   25 2
  16    8   26 am
  17    9   10 1
  18    9   59 1
  19    9   60 1
  20   10   11 am
  21   10   12 2
  22   11   13 1
  23   11   17 1
  24   13   14 1
  25   13   61 1
  26   13   62 1
  27   14   15 1
  28   14   63 1
  29   14   64 1
  30   15   16 1
  31   15   18 1
  32   16   17 1
  33   16   65 1
  34   16   66 1
  35   17   67 1
  36   17   68 1
  37   18   19 1
  38   18   23 1
  39   18   69 1
  40   19   20 1
  41   19   70 1
  42   19   71 1
  43   20   21 1
  44   20   72 1
  45   20   73 1
  46   21   22 1
  47   21   24 1
  48   22   23 1
  49   22   74 1
  50   22   75 1
  51   23   76 1
  52   23   77 1
  53   24   44 1
  54   24   45 1
  55   24   78 1
  56   26   46 am
  57   26   28 1
  58   27   28 ar
  59   27   29 ar
  60   28   32 ar
  61   29   30 ar
  62   29   79 1
  63   30   31 ar
  64   30   54 1
  65   31   32 ar
  66   31   33 1
  67   32   80 1
  68   34   35 ar
  69   34   36 ar
  70   34   46 1
  71   35   41 1
  72   35   39 ar
  73   36   37 ar
  74   36   81 1
  75   37   38 ar
  76   37   82 1
  77   38   39 ar
  78   38   40 1
  79   39   83 1
  80   41   42 1
  81   42   43 1
  82   42   84 1
  83   42   85 1
  84   43   86 1
  85   43   87 1
  86   43   88 1
  87   44   89 1
  88   44   90 1
  89   44   91 1
  90   45   92 1
  91   45   93 1
  92   45   94 1
  93   46   47 2
  94   46   48 2
  95   49   50 1
  96   50   51 1
  97   50   95 1
  98   50   96 1
  99   51   52 1
 100   51   53 1
 101   51   97 1
 102   54   55 3

#	End of record

