#	Name: ASD03731647
#	Creating user name:	WinNT
#	Creation time:	15. 06. 2019 20:46

#	Modifying user name:	WinNT
#	Modification time:	15. 06. 2019 20:46

#	Program:	/corina/corina34_cracker 3.40 0067  02.08.2006

@<TRIPOS>MOLECULE
ASD03731647
  37   38    0    0    0
SMALL
NO_CHARGES


@<TRIPOS>ATOM
   1 C1            -0.0179     1.4702     0.0101 C.2     
   2 C2             0.0021    -0.0041     0.0020 C.ar    
   3 C3             1.2225    -0.6896    -0.0133 C.ar    
   4 C4             1.2360    -2.0698    -0.0204 C.ar    
   5 C5             0.0415    -2.7777    -0.0128 C.ar    
   6 C6            -1.1747    -2.0994     0.0025 C.ar    
   7 C7            -1.1979    -0.7218     0.0155 C.ar    
   8 O8             1.0268     2.0925     0.0035 O.2     
   9 N9            -1.1941     2.1281     0.0193 N.am    
  10 S10           -1.2166     3.7840     0.0284 S.o2    
  11 O11           -2.5980     4.1155     0.0625 O.2     
  12 O12           -0.3511     4.1403     1.0975 O.2     
  13 C13           -0.4880     4.2553    -1.5646 C.3     
  14 O14            0.0593    -4.1348    -0.0206 O.3     
  15 C15            1.2685    -4.7576    -0.0360 C.ar    
  16 C16            1.8986    -5.0829     1.1571 C.ar    
  17 C17            3.1287    -5.7169     1.1385 C.ar    
  18 C18            3.7314    -6.0271    -0.0667 C.ar    
  19 C19            3.1086    -5.7050    -1.2579 C.ar    
  20 C20            1.8738    -5.0751    -1.2473 C.ar    
  21 O21            1.2582    -4.7631    -2.4190 O.3     
  22 C22            1.9384    -5.1192    -3.6242 C.3     
  23 F23            1.3119    -4.7805     2.3359 F       
  24 F24           -2.3338    -2.7934     0.0094 F       
  25 F25            2.3851    -0.0014    -0.0216 F       
  26 H26            2.1769    -2.5999    -0.0322 H       
  27 H27           -2.1417    -0.1970     0.0318 H       
  28 H28           -2.0275     1.6318     0.0205 H       
  29 H29           -1.0900     3.8446    -2.3752 H       
  30 H30           -0.4628     5.3420    -1.6453 H       
  31 H31            0.5266     3.8625    -1.6305 H       
  32 H32            3.6190    -5.9696     2.0670 H       
  33 H33            4.6913    -6.5219    -0.0774 H       
  34 H34            3.5825    -5.9481    -2.1975 H       
  35 H35            2.0894    -6.1984    -3.6509 H       
  36 H36            1.3399    -4.8147    -4.4828 H       
  37 H37            2.9048    -4.6162    -3.6581 H       
@<TRIPOS>BOND
   1    1    2 1
   2    1    8 2
   3    1    9 am
   4    2    3 ar
   5    2    7 ar
   6    3    4 ar
   7    3   25 1
   8    4    5 ar
   9    4   26 1
  10    5    6 ar
  11    5   14 1
  12    6    7 ar
  13    6   24 1
  14    7   27 1
  15    9   10 am
  16    9   28 1
  17   10   11 2
  18   10   12 2
  19   10   13 1
  20   13   29 1
  21   13   30 1
  22   13   31 1
  23   14   15 1
  24   15   16 ar
  25   15   20 ar
  26   16   17 ar
  27   16   23 1
  28   17   18 ar
  29   17   32 1
  30   18   19 ar
  31   18   33 1
  32   19   20 ar
  33   19   34 1
  34   20   21 1
  35   21   22 1
  36   22   35 1
  37   22   36 1
  38   22   37 1

#	End of record

