#	Name: ASD00060030
#	Creating user name:	WinNT
#	Creation time:	15. 06. 2019 18:29

#	Modifying user name:	WinNT
#	Modification time:	15. 06. 2019 18:29

#	Program:	/corina/corina34_cracker 3.40 0067  02.08.2006

@<TRIPOS>MOLECULE
ASD00060030
  45   47    0    0    0
SMALL
NO_CHARGES


@<TRIPOS>ATOM
   1 C1            -0.0964     1.3653    -0.3574 C.ar    
   2 C2            -0.0764    -0.0180    -0.3751 C.ar    
   3 C3             1.1304    -0.6926    -0.3226 C.ar    
   4 C4             2.3152     0.0157    -0.2525 C.ar    
   5 C5             2.2946     1.3978    -0.2348 C.ar    
   6 C6             1.0891     2.0724    -0.2873 C.ar    
   7 C7             3.5868     2.1695    -0.1579 C.3     
   8 C8             4.0982     2.4501    -1.5724 C.3     
   9 C9             5.3903     3.2217    -1.4954 C.2     
  10 C10            5.3667     4.6901    -1.4287 C.ar    
  11 C11            6.5699     2.5644    -1.4879 C.2     
  12 C12            5.9025     5.4483    -2.4766 C.ar    
  13 C13            5.8794     6.8175    -2.4121 C.ar    
  14 C14            5.3228     7.4557    -1.3027 C.ar    
  15 C15            4.7886     6.7020    -0.2565 C.ar    
  16 C16            4.8034     5.3325    -0.3197 C.ar    
  17 Cl17          -1.5650    -0.9069    -0.4625 Cl      
  18 C18            5.2995     8.9363    -1.2351 C.ar    
  19 C19            4.7445     9.5778    -0.1285 C.ar    
  20 C20            4.7260    10.9564    -0.0710 C.ar    
  21 C21            5.2569    11.7018    -1.1084 C.ar    
  22 C22            5.8085    11.0710    -2.2091 C.ar    
  23 C23            5.8378     9.6929    -2.2752 C.ar    
  24 C24            6.5934     1.1065    -1.3856 C.2     
  25 O25            5.5601     0.4934    -1.1963 O.2     
  26 O26            7.7613     0.4409    -1.5011 O.3     
  27 H27           -1.0379     1.8925    -0.4028 H       
  28 H28            1.1466    -1.7724    -0.3360 H       
  29 H29            3.2573    -0.5108    -0.2111 H       
  30 H30            1.0736     3.1522    -0.2735 H       
  31 H31            3.4162     3.1129     0.3606 H       
  32 H32            4.3276     1.5842     0.3868 H       
  33 H33            4.2687     1.5066    -2.0909 H       
  34 H34            3.3573     3.0354    -2.1171 H       
  35 H35            7.4959     3.1158    -1.5574 H       
  36 H36            6.3339     4.9549    -3.3350 H       
  37 H37            6.2925     7.4028    -3.2203 H       
  38 H38            4.3591     7.1979     0.6013 H       
  39 H39            4.3896     4.7497     0.4899 H       
  40 H40            4.3294     8.9968     0.6818 H       
  41 H41            4.2960    11.4543     0.7855 H       
  42 H42            5.2402    12.7806    -1.0590 H       
  43 H43            6.2212    11.6581    -3.0162 H       
  44 H44            6.2690     9.2015    -3.1348 H       
  45 H45            7.6766    -0.5189    -1.4198 H       
@<TRIPOS>BOND
   1    1    2 ar
   2    1    6 ar
   3    1   27 1
   4    2    3 ar
   5    2   17 1
   6    3    4 ar
   7    3   28 1
   8    4    5 ar
   9    4   29 1
  10    5    6 ar
  11    5    7 1
  12    6   30 1
  13    7    8 1
  14    7   31 1
  15    7   32 1
  16    8    9 1
  17    8   33 1
  18    8   34 1
  19    9   10 1
  20    9   11 2
  21   10   12 ar
  22   10   16 ar
  23   11   24 1
  24   11   35 1
  25   12   13 ar
  26   12   36 1
  27   13   14 ar
  28   13   37 1
  29   14   15 ar
  30   14   18 1
  31   15   16 ar
  32   15   38 1
  33   16   39 1
  34   18   19 ar
  35   18   23 ar
  36   19   20 ar
  37   19   40 1
  38   20   21 ar
  39   20   41 1
  40   21   22 ar
  41   21   42 1
  42   22   23 ar
  43   22   43 1
  44   23   44 1
  45   24   25 2
  46   24   26 1
  47   26   45 1

#	End of record

