#	Name: ASD02038097
#	Creating user name:	WinNT
#	Creation time:	15. 06. 2019 20:16

#	Modifying user name:	WinNT
#	Modification time:	15. 06. 2019 20:16

#	Program:	/corina/corina34_cracker 3.40 0067  02.08.2006

@<TRIPOS>MOLECULE
ASD02038097
  51   52    0    0    0
SMALL
NO_CHARGES


@<TRIPOS>ATOM
   1 C1             0.5147     1.9193    -0.7650 C.ar    
   2 C2             0.4768     0.5443    -0.6222 C.ar    
   3 C3             1.7272     2.5703    -0.9001 C.ar    
   4 C4             2.9048     1.8488    -0.8929 C.ar    
   5 C5             2.8703     0.4675    -0.7498 C.ar    
   6 C6             1.6506    -0.1833    -0.6142 C.ar    
   7 N7             4.0593    -0.2653    -0.7425 N.pl3   
   8 N8             5.4089    -3.7356    -0.4646 N.3     
   9 C9             5.4473    -2.2750    -0.6161 C.3     
  10 C10            4.0210    -1.7220    -0.5914 C.3     
  11 C11            6.7639    -4.3027    -0.4838 C.3     
  12 C12            6.6832    -5.8222    -0.3239 C.3     
  13 C13            8.0945    -6.4128    -0.3438 C.3     
  14 O14            6.0525    -6.1375     0.9190 O.3     
  15 O15            8.0144    -7.8392    -0.3117 O.3     
  16 C16            9.1894    -8.5240    -0.3242 C.ar    
  17 C17            9.1838    -9.9107    -0.2946 C.ar    
  18 C18           10.3764   -10.6069    -0.3078 C.ar    
  19 C19           11.5815    -9.9182    -0.3506 C.ar    
  20 C20           11.5862    -8.5299    -0.3802 C.ar    
  21 C21           10.3924    -7.8354    -0.3724 C.ar    
  22 N22           12.7905   -10.6229    -0.3635 N.am    
  23 S23           13.7240   -10.6905     1.0026 S.o2    
  24 O24           14.8380   -11.4886     0.6266 O.2     
  25 O25           13.8911    -9.3309     1.3805 O.2     
  26 C26           12.6935   -11.5654     2.2122 C.3     
  27 H27           -0.4049     2.4855    -0.7754 H       
  28 H28           -0.4718     0.0390    -0.5165 H       
  29 H29            1.7533     3.6442    -1.0117 H       
  30 H30            3.8514     2.3579    -0.9989 H       
  31 H31            1.6202    -1.2571    -0.5023 H       
  32 H32            4.9104     0.1902    -0.8376 H       
  33 H33            4.9186    -3.9991     0.3769 H       
  34 H34            6.0200    -1.8397     0.2028 H       
  35 H35            5.9193    -2.0204    -1.5651 H       
  36 H36            3.5490    -1.9766     0.3575 H       
  37 H37            3.4483    -2.1573    -1.4104 H       
  38 H38            7.2451    -4.0622    -1.4318 H       
  39 H39            7.3457    -3.8815     0.3361 H       
  40 H40            6.1014    -6.2434    -1.1437 H       
  41 H41            8.6072    -6.0981    -1.2528 H       
  42 H42            8.6482    -6.0603     0.5263 H       
  43 H43            6.5168    -5.7933     1.6942 H       
  44 H44            8.2464   -10.4461    -0.2609 H       
  45 H45           10.3719   -11.6866    -0.2844 H       
  46 H46           12.5230    -7.9935    -0.4136 H       
  47 H47           10.3959    -6.7557    -0.3958 H       
  48 H48           13.0817   -11.0717    -1.1727 H       
  49 H49           12.3791   -12.5228     1.7968 H       
  50 H50           13.2674   -11.7354     3.1231 H       
  51 H51           11.8146   -10.9636     2.4435 H       
@<TRIPOS>BOND
   1    1    2 ar
   2    1    3 ar
   3    1   27 1
   4    2    6 ar
   5    2   28 1
   6    3    4 ar
   7    3   29 1
   8    4    5 ar
   9    4   30 1
  10    5    6 ar
  11    5    7 1
  12    6   31 1
  13    7   10 1
  14    7   32 1
  15    8    9 1
  16    8   11 1
  17    8   33 1
  18    9   10 1
  19    9   34 1
  20    9   35 1
  21   10   36 1
  22   10   37 1
  23   11   12 1
  24   11   38 1
  25   11   39 1
  26   12   14 1
  27   12   13 1
  28   12   40 1
  29   13   15 1
  30   13   41 1
  31   13   42 1
  32   14   43 1
  33   15   16 1
  34   16   17 ar
  35   16   21 ar
  36   17   18 ar
  37   17   44 1
  38   18   19 ar
  39   18   45 1
  40   19   20 ar
  41   19   22 1
  42   20   21 ar
  43   20   46 1
  44   21   47 1
  45   22   23 am
  46   22   48 1
  47   23   24 2
  48   23   25 2
  49   23   26 1
  50   26   49 1
  51   26   50 1
  52   26   51 1

#	End of record

