#	Name: ASD06350038
#	Creating user name:	WinNT
#	Creation time:	15. 06. 2019 21:06

#	Modifying user name:	WinNT
#	Modification time:	15. 06. 2019 21:06

#	Program:	/corina/corina34_cracker 3.40 0067  02.08.2006

@<TRIPOS>MOLECULE
ASD06350038
  50   53    0    0    0
SMALL
NO_CHARGES


@<TRIPOS>ATOM
   1 C1            -2.9880    -6.6845     6.2990 C.3     
   2 N2            -2.3112    -6.3468     5.0444 N.pl3   
   3 C3            -2.8879    -5.4439     4.1683 C.ar    
   4 N4            -4.0524    -4.8948     4.4803 N.ar    
   5 C5            -4.6345    -4.0263     3.6669 C.ar    
   6 C6            -4.0135    -3.6928     2.4782 C.ar    
   7 C7            -2.7884    -4.2875     2.1776 C.ar    
   8 N8            -2.2592    -5.1461     3.0409 N.ar    
   9 O9            -2.1451    -3.9896     1.0229 O.3     
  10 C10           -0.9073    -4.5183     0.8268 C.ar    
  11 C11            0.2204    -3.7430     1.0484 C.ar    
  12 C12            1.4781    -4.2790     0.8501 C.ar    
  13 C13            1.6138    -5.5947     0.4281 C.ar    
  14 C14            0.4847    -6.3724     0.2058 C.ar    
  15 C15           -0.7732    -5.8372     0.4100 C.ar    
  16 F16           -1.8723    -6.5926     0.1941 F       
  17 N17            2.8886    -6.1374     0.2263 N.am    
  18 C18            3.1066    -7.4481     0.4523 C.2     
  19 O19            2.1693    -8.1909     0.6762 O.2     
  20 C20            4.4772    -7.9804     0.4281 C.2     
  21 C21            4.7045    -9.3553     0.4578 C.2     
  22 C22            6.0179    -9.8236     0.4331 C.2     
  23 C23            7.0531    -8.9467     0.3812 C.2     
  24 N24            6.8392    -7.6081     0.3520 N.am    
  25 C25            5.5908    -7.1038     0.3681 C.2     
  26 O26            5.4183    -5.8975     0.3410 O.2     
  27 C27            7.9342    -6.7361     0.2991 C.ar    
  28 C28            8.7575    -6.5858     1.4073 C.ar    
  29 C29            9.8367    -5.7260     1.3529 C.ar    
  30 C30           10.0983    -5.0139     0.1943 C.ar    
  31 C31            9.2784    -5.1624    -0.9120 C.ar    
  32 C32            8.2012    -6.0252    -0.8635 C.ar    
  33 F33           11.1543    -4.1729     0.1432 F       
  34 H34           -2.3873    -7.4056     6.8533 H       
  35 H35           -3.1161    -5.7823     6.8971 H       
  36 H36           -3.9644    -7.1169     6.0802 H       
  37 H37           -1.4588    -6.7559     4.8278 H       
  38 H38           -5.5841    -3.5840     3.9296 H       
  39 H39           -4.4670    -2.9878     1.7972 H       
  40 H40            0.1157    -2.7192     1.3760 H       
  41 H41            2.3561    -3.6743     1.0230 H       
  42 H42            0.5896    -7.3960    -0.1224 H       
  43 H43            3.6149    -5.5700    -0.0761 H       
  44 H44            3.8763   -10.0472     0.4998 H       
  45 H45            6.2119   -10.8858     0.4555 H       
  46 H46            8.0655    -9.3223     0.3632 H       
  47 H47            8.5536    -7.1407     2.3112 H       
  48 H48           10.4770    -5.6086     2.2147 H       
  49 H49            9.4839    -4.6060    -1.8145 H       
  50 H50            7.5622    -6.1407    -1.7264 H       
@<TRIPOS>BOND
   1    1    2 1
   2    1   34 1
   3    1   35 1
   4    1   36 1
   5    2    3 1
   6    2   37 1
   7    3    4 ar
   8    3    8 ar
   9    4    5 ar
  10    5    6 ar
  11    5   38 1
  12    6    7 ar
  13    6   39 1
  14    7    8 ar
  15    7    9 1
  16    9   10 1
  17   10   11 ar
  18   10   15 ar
  19   11   12 ar
  20   11   40 1
  21   12   13 ar
  22   12   41 1
  23   13   14 ar
  24   13   17 1
  25   14   15 ar
  26   14   42 1
  27   15   16 1
  28   17   18 am
  29   17   43 1
  30   18   19 2
  31   18   20 1
  32   20   21 2
  33   20   25 1
  34   21   22 1
  35   21   44 1
  36   22   23 2
  37   22   45 1
  38   23   24 1
  39   23   46 1
  40   24   25 am
  41   24   27 1
  42   25   26 2
  43   27   28 ar
  44   27   32 ar
  45   28   29 ar
  46   28   47 1
  47   29   30 ar
  48   29   48 1
  49   30   31 ar
  50   30   33 1
  51   31   32 ar
  52   31   49 1
  53   32   50 1

#	End of record

