#	Name: ASD01815863
#	Creating user name:	WinNT
#	Creation time:	15. 06. 2019 19:34

#	Modifying user name:	WinNT
#	Modification time:	15. 06. 2019 19:34

#	Program:	/corina/corina34_cracker 3.40 0067  02.08.2006

@<TRIPOS>MOLECULE
ASD01815863
  41   44    0    0    0
SMALL
NO_CHARGES


@<TRIPOS>ATOM
   1 C1            -0.0167     1.3812     0.0096 C.ar    
   2 C2             0.0021    -0.0041     0.0020 C.ar    
   3 C3             1.1984    -0.6908    -0.0131 C.ar    
   4 C4             2.4015     0.0061    -0.0204 C.ar    
   5 C5             2.3789     1.4106    -0.0127 C.ar    
   6 C6             1.1664     2.0916     0.0022 C.ar    
   7 N7             3.6054    -0.6770    -0.0347 N.pl3   
   8 C8             4.7971    -0.0584    -0.0423 C.2     
   9 C9             4.9001     1.3105    -0.0364 C.2     
  10 C10            3.6673     2.1304    -0.0207 C.2     
  11 C11            5.9972     2.2731    -0.0422 C.2     
  12 N12            5.4244     3.4961    -0.0313 N.am    
  13 N13            4.0322     3.3795    -0.0185 N.2     
  14 O14            7.1917     2.0232    -0.0541 O.2     
  15 C15            3.5781    -2.1418    -0.0413 C.3     
  16 C16            3.5556    -2.6374    -1.4643 C.ar    
  17 C17            4.7432    -2.8866    -2.1271 C.ar    
  18 C18            4.7253    -3.3410    -3.4315 C.ar    
  19 C19            3.5145    -3.5471    -4.0765 C.ar    
  20 C20            2.3243    -3.2962    -3.4093 C.ar    
  21 C21            2.3475    -2.8474    -2.1030 C.ar    
  22 C22            6.1581     4.7641    -0.0316 C.3     
  23 O23            3.4942    -3.9936    -5.3599 O.3     
  24 C24            2.2116    -4.1833    -5.9607 C.3     
  25 H25           -0.9602     1.9068     0.0170 H       
  26 H26           -0.9288    -0.5516     0.0083 H       
  27 H27            1.2005    -1.7708    -0.0189 H       
  28 H28            1.1508     3.1714     0.0084 H       
  29 H29            5.6984    -0.6535    -0.0530 H       
  30 H30            4.4658    -2.5240     0.4626 H       
  31 H31            2.6862    -2.4908     0.4791 H       
  32 H32            5.6856    -2.7257    -1.6247 H       
  33 H33            5.6532    -3.5353    -3.9490 H       
  34 H34            1.3804    -3.4560    -3.9092 H       
  35 H35            1.4212    -2.6519    -1.5831 H       
  36 H36            6.3311     5.0835    -1.0593 H       
  37 H37            5.5743     5.5219     0.4910 H       
  38 H38            7.1149     4.6304     0.4732 H       
  39 H39            1.6463    -4.9172    -5.3863 H       
  40 H40            1.6718    -3.2364    -5.9715 H       
  41 H41            2.3383    -4.5410    -6.9825 H       
@<TRIPOS>BOND
   1    1    2 ar
   2    1    6 ar
   3    1   25 1
   4    2    3 ar
   5    2   26 1
   6    3    4 ar
   7    3   27 1
   8    4    5 ar
   9    4    7 1
  10    5    6 ar
  11    5   10 1
  12    6   28 1
  13    7    8 1
  14    7   15 1
  15    8    9 2
  16    8   29 1
  17    9   10 1
  18    9   11 1
  19   10   13 2
  20   11   12 am
  21   11   14 2
  22   12   13 1
  23   12   22 1
  24   15   16 1
  25   15   30 1
  26   15   31 1
  27   16   17 ar
  28   16   21 ar
  29   17   18 ar
  30   17   32 1
  31   18   19 ar
  32   18   33 1
  33   19   20 ar
  34   19   23 1
  35   20   21 ar
  36   20   34 1
  37   21   35 1
  38   22   36 1
  39   22   37 1
  40   22   38 1
  41   23   24 1
  42   24   39 1
  43   24   40 1
  44   24   41 1

#	End of record

