#	Name: ASD01903318
#	Creating user name:	WinNT
#	Creation time:	15. 06. 2019 19:54

#	Modifying user name:	WinNT
#	Modification time:	15. 06. 2019 19:54

#	Program:	/corina/corina34_cracker 3.40 0067  02.08.2006

@<TRIPOS>MOLECULE
ASD01903318
  34   37    0    0    0
SMALL
NO_CHARGES


@<TRIPOS>ATOM
   1 N1            -0.0111     0.9658     0.0074 N.pl3   
   2 H2             0.0021    -0.0041     0.0020 H       
   3 C3             1.1793     1.6749    -0.0002 C.2     
   4 C4            -1.2896     1.6810     0.0173 C.3     
   5 S5             2.7354     0.9670    -0.0189 S.3     
   6 C6             3.4798     2.5556    -0.0106 C.2     
   7 C7             2.4829     3.4896    -0.0077 C.2     
   8 N8             1.2692     2.9678     0.0003 N.2     
   9 C9             4.9467     2.8918     0.0058 C.3     
  10 C10            5.2263     4.2107    -0.7167 C.3     
  11 C11            4.1921     5.2451    -0.3664 C.2     
  12 C12            2.8926     4.9245    -0.0421 C.2     
  13 N13            4.2928     6.5795    -0.3009 N.pl3   
  14 N14            3.0365     7.0985     0.0521 N.2     
  15 C15            2.1977     6.0995     0.2051 C.2     
  16 C16           -2.3922     0.7982    -0.5932 C.3     
  17 C17           -3.4512     0.5904     0.5090 C.3     
  18 C18           -3.2556     1.8000     1.4565 C.3     
  19 C19           -1.7172     1.9789     1.4693 C.3     
  20 H20           -1.2015     2.6106    -0.5450 H       
  21 H21            5.2821     2.9737     1.0396 H       
  22 H22            5.5012     2.0920    -0.4852 H       
  23 H23            6.2113     4.5764    -0.4264 H       
  24 H24            5.2116     4.0396    -1.7931 H       
  25 H25            5.0955     7.0979    -0.4680 H       
  26 H26            1.1548     6.1785     0.4742 H       
  27 H27           -2.8397     1.2997    -1.4513 H       
  28 H28           -1.9760    -0.1624    -0.8969 H       
  29 H29           -4.4538     0.5991     0.0813 H       
  30 H30           -3.2704    -0.3438     1.0407 H       
  31 H31           -3.7445     2.6879     1.0555 H       
  32 H32           -3.6263     1.5718     2.4558 H       
  33 H33           -1.2562     1.2690     2.1560 H       
  34 H34           -1.4542     3.0009     1.7423 H       
@<TRIPOS>BOND
   1    1    2 1
   2    1    3 1
   3    1    4 1
   4    3    5 1
   5    3    8 2
   6    4   16 1
   7    4   19 1
   8    4   20 1
   9    5    6 1
  10    6    7 2
  11    6    9 1
  12    7    8 1
  13    7   12 1
  14    9   10 1
  15    9   21 1
  16    9   22 1
  17   10   11 1
  18   10   23 1
  19   10   24 1
  20   11   12 2
  21   11   13 1
  22   12   15 1
  23   13   14 1
  24   13   25 1
  25   14   15 2
  26   15   26 1
  27   16   17 1
  28   16   27 1
  29   16   28 1
  30   17   18 1
  31   17   29 1
  32   17   30 1
  33   18   19 1
  34   18   31 1
  35   18   32 1
  36   19   33 1
  37   19   34 1

#	End of record

