#	Name: ASD05380083
#	Creating user name:	WinNT
#	Creation time:	15. 06. 2019 20:59

#	Modifying user name:	WinNT
#	Modification time:	15. 06. 2019 20:59

#	Program:	/corina/corina34_cracker 3.40 0067  02.08.2006

@<TRIPOS>MOLECULE
ASD05380083
  47   51    0    0    0
SMALL
NO_CHARGES


@<TRIPOS>ATOM
   1 C1            -0.0184     1.1764    -0.4494 C.ar    
   2 C2             0.1038    -0.1627    -0.0155 C.ar    
   3 C3             1.0944     1.8547    -0.9419 C.ar    
   4 C4             2.3109     1.2101    -1.0017 C.ar    
   5 C5             2.4344    -0.1059    -0.5766 C.ar    
   6 C6             1.3471    -0.7938    -0.0857 C.ar    
   7 N7            -0.9932    -0.8030     0.4607 N.2     
   8 C8            -2.1492    -0.2155     0.5267 C.2     
   9 N9            -2.3585     1.0695     0.1317 N.am    
  10 C10           -1.3395     1.8146    -0.3564 C.2     
  11 C11           -3.6387     1.6280     0.2361 C.ar    
  12 C12           -4.5315     1.5242    -0.8224 C.ar    
  13 C13           -4.0198     2.2816     1.4005 C.ar    
  14 C14           -5.2831     2.8308     1.5006 C.ar    
  15 C15           -6.1682     2.7299     0.4429 C.ar    
  16 C16           -5.7933     2.0755    -0.7162 C.ar    
  17 C17           -3.3186    -0.9969     1.0680 C.3     
  18 N18           -3.2038    -2.3975     0.6538 N.pl3   
  19 C19           -4.3369    -3.1865     0.5602 C.ar    
  20 N20           -5.5369    -2.6894     0.8422 N.ar    
  21 O21           -1.5122     2.9655    -0.7134 O.2     
  22 C22           -4.2462    -4.5300     0.1590 C.ar    
  23 C23           -5.4315    -5.2811     0.0827 C.ar    
  24 N24           -6.5859    -4.6989     0.3899 N.ar    
  25 C25           -6.6234    -3.4348     0.7557 C.ar    
  26 N26           -3.2300    -5.3502    -0.2012 N.2     
  27 C27           -3.7043    -6.5279    -0.4868 C.2     
  28 N28           -5.0581    -6.5361    -0.3270 N.pl3   
  29 C29           -3.3231    -0.9156     2.5958 C.3     
  30 O30           -2.0667    -1.3720     3.1008 O.3     
  31 H31            1.0042     2.8782    -1.2746 H       
  32 H32            3.1756     1.7329    -1.3829 H       
  33 H33            3.3952    -0.5960    -0.6313 H       
  34 H34            1.4555    -1.8169     0.2427 H       
  35 H35           -4.2393     1.0132    -1.7279 H       
  36 H36           -3.3292     2.3600     2.2272 H       
  37 H37           -5.5801     3.3392     2.4059 H       
  38 H38           -7.1557     3.1596     0.5238 H       
  39 H39           -6.4867     1.9987    -1.5406 H       
  40 H40           -4.2467    -0.5780     0.6791 H       
  41 H41           -2.3336    -2.7718     0.4453 H       
  42 H42           -7.5786    -2.9909     0.9944 H       
  43 H43           -3.1127    -7.3741    -0.8038 H       
  44 H44           -5.6490    -7.2910    -0.4751 H       
  45 H45           -3.4851     0.1173     2.9042 H       
  46 H46           -4.1227    -1.5423     2.9907 H       
  47 H47           -1.9982    -1.3480     4.0651 H       
@<TRIPOS>BOND
   1    1    2 ar
   2    1    3 ar
   3    1   10 1
   4    2    7 1
   5    2    6 ar
   6    3    4 ar
   7    3   31 1
   8    4    5 ar
   9    4   32 1
  10    5    6 ar
  11    5   33 1
  12    6   34 1
  13    7    8 2
  14    8    9 1
  15    8   17 1
  16    9   10 am
  17    9   11 1
  18   10   21 2
  19   11   12 ar
  20   11   13 ar
  21   12   16 ar
  22   12   35 1
  23   13   14 ar
  24   13   36 1
  25   14   15 ar
  26   14   37 1
  27   15   16 ar
  28   15   38 1
  29   16   39 1
  30   17   18 1
  31   17   29 1
  32   17   40 1
  33   18   19 1
  34   18   41 1
  35   19   20 ar
  36   19   22 ar
  37   20   25 ar
  38   22   23 ar
  39   22   26 1
  40   23   24 ar
  41   23   28 1
  42   24   25 ar
  43   25   42 1
  44   26   27 2
  45   27   28 1
  46   27   43 1
  47   28   44 1
  48   29   30 1
  49   29   45 1
  50   29   46 1
  51   30   47 1

#	End of record

