#	Name: ASD03430506
#	Creating user name:	WinNT
#	Creation time:	15. 06. 2019 20:41

#	Modifying user name:	WinNT
#	Modification time:	15. 06. 2019 20:41

#	Program:	/corina/corina34_cracker 3.40 0067  02.08.2006

@<TRIPOS>MOLECULE
ASD03430506
  52   56    0    0    0
SMALL
NO_CHARGES


@<TRIPOS>ATOM
   1 N1             0.1561     1.8627     0.3528 N.am    
   2 C2             0.5567     0.8157     1.0938 C.2     
   3 C3             2.0653     0.8924     1.1944 C.3     
   4 C4             2.4239     2.1291     0.4030 C.ar    
   5 C5             3.6231     2.7406     0.1138 C.ar    
   6 C6             3.6433     3.8912    -0.6549 C.ar    
   7 C7             2.4578     4.4222    -1.1297 C.ar    
   8 C8             1.2551     3.8115    -0.8414 C.ar    
   9 C9             1.2266     2.6525    -0.0679 C.ar    
  10 O10           -0.1563    -0.0312     1.5891 O.2     
  11 O11            2.4695     1.0357     2.5576 O.3     
  12 C12           -1.2434     2.1395     0.0197 C.3     
  13 C13           -1.7642     1.0623    -0.8965 C.ar    
  14 C14           -2.8760     1.3013    -1.6824 C.ar    
  15 C15           -3.3538     0.3132    -2.5228 C.ar    
  16 C16           -2.7195    -0.9138    -2.5776 C.ar    
  17 C17           -1.6071    -1.1525    -1.7924 C.ar    
  18 C18           -1.1268    -0.1629    -0.9552 C.ar    
  19 C19           -2.0649     2.1650     1.2829 C.ar    
  20 C20           -2.3259     3.3671     1.9134 C.ar    
  21 C21           -3.0794     3.3906     3.0721 C.ar    
  22 C22           -3.5722     2.2119     3.6001 C.ar    
  23 C23           -3.3119     1.0098     2.9690 C.ar    
  24 C24           -2.5621     0.9869     1.8079 C.ar    
  25 C25            2.6983    -0.3295     0.5802 C.ar    
  26 C26            2.4575    -0.6409    -0.7500 C.ar    
  27 C27            3.0403    -1.7654    -1.3145 C.ar    
  28 C28            3.8612    -2.5754    -0.5500 C.ar    
  29 C29            4.1004    -2.2620     0.7793 C.ar    
  30 C30            3.5229    -1.1364     1.3405 C.ar    
  31 O31            1.6503     0.1557    -1.4996 O.3     
  32 F32            4.9017    -3.0532     1.5257 F       
  33 F33            4.4293    -3.6715    -1.0986 F       
  34 H34            4.5467     2.3231     0.4867 H       
  35 H35            4.5823     4.3734    -0.8832 H       
  36 H36            2.4738     5.3203    -1.7293 H       
  37 H37            0.3336     4.2323    -1.2158 H       
  38 H38            2.2108     0.2961     3.1243 H       
  39 H39           -1.3138     3.1061    -0.4791 H       
  40 H40           -3.3716     2.2599    -1.6395 H       
  41 H41           -4.2229     0.4997    -3.1363 H       
  42 H42           -3.0932    -1.6860    -3.2337 H       
  43 H43           -1.1117    -2.1113    -1.8350 H       
  44 H44           -0.2555    -0.3482    -0.3445 H       
  45 H45           -1.9409     4.2880     1.5010 H       
  46 H46           -3.2827     4.3297     3.5652 H       
  47 H47           -4.1603     2.2301     4.5057 H       
  48 H48           -3.6967     0.0889     3.3817 H       
  49 H49           -2.3618     0.0481     1.3129 H       
  50 H50            2.8532    -2.0091    -2.3499 H       
  51 H51            3.7137    -0.8907     2.3748 H       
  52 H52            2.1163     0.8694    -1.9563 H       
@<TRIPOS>BOND
   1    1    2 am
   2    1    9 1
   3    1   12 1
   4    2    3 1
   5    2   10 2
   6    3    4 1
   7    3   11 1
   8    3   25 1
   9    4    5 ar
  10    4    9 ar
  11    5    6 ar
  12    5   34 1
  13    6    7 ar
  14    6   35 1
  15    7    8 ar
  16    7   36 1
  17    8    9 ar
  18    8   37 1
  19   11   38 1
  20   12   13 1
  21   12   19 1
  22   12   39 1
  23   13   14 ar
  24   13   18 ar
  25   14   15 ar
  26   14   40 1
  27   15   16 ar
  28   15   41 1
  29   16   17 ar
  30   16   42 1
  31   17   18 ar
  32   17   43 1
  33   18   44 1
  34   19   20 ar
  35   19   24 ar
  36   20   21 ar
  37   20   45 1
  38   21   22 ar
  39   21   46 1
  40   22   23 ar
  41   22   47 1
  42   23   24 ar
  43   23   48 1
  44   24   49 1
  45   25   26 ar
  46   25   30 ar
  47   26   27 ar
  48   26   31 1
  49   27   28 ar
  50   27   50 1
  51   28   29 ar
  52   28   33 1
  53   29   30 ar
  54   29   32 1
  55   30   51 1
  56   31   52 1

#	End of record

