#	Name: ASD02408139
#	Creating user name:	WinNT
#	Creation time:	15. 06. 2019 20:21

#	Modifying user name:	WinNT
#	Modification time:	15. 06. 2019 20:21

#	Program:	/corina/corina34_cracker 3.40 0067  02.08.2006

@<TRIPOS>MOLECULE
ASD02408139
  64   66    0    0    0
SMALL
NO_CHARGES


@<TRIPOS>ATOM
   1 C1            -1.2026     1.5583     0.0879 C.ar    
   2 C2            -1.4375     0.2193    -0.1615 C.ar    
   3 C3             0.0899     2.0487     0.0683 C.ar    
   4 C4             1.1471     1.2000    -0.2007 C.ar    
   5 C5             0.9121    -0.1395    -0.4497 C.ar    
   6 C6            -0.3800    -0.6297    -0.4306 C.ar    
   7 C7             0.3461     3.5087     0.3398 C.3     
   8 C8             0.4368     3.7348     1.8270 C.2     
   9 N9             0.6635     4.9818     2.2834 N.am    
  10 N10            0.2878     2.7167     2.6302 N.2     
  11 C11            0.3579     2.8579     3.9600 C.2     
  12 C12            0.5972     4.1307     4.5041 C.2     
  13 C13            0.7502     5.2205     3.6089 C.2     
  14 N14            0.1970     1.7704     4.7830 N.pl3   
  15 C15           -0.5802     1.8799     6.0250 C.3     
  16 O16            0.9595     6.3461     4.0272 O.2     
  17 C17           -2.3558     2.4849     0.3750 C.3     
  18 N18           -2.6930     3.2381    -0.8402 N.3     
  19 C19           -3.2132     2.3461    -1.8851 C.3     
  20 C20           -3.6473     4.3150    -0.5443 C.3     
  21 C21           -2.9128     5.4770     0.1274 C.3     
  22 O22           -2.0037     6.0677    -0.8036 O.3     
  23 C23           -1.2629     7.1688    -0.2736 C.3     
  24 C24           -1.6580     0.7913     6.0299 C.3     
  25 C25           -0.9994    -0.5740     5.8188 C.3     
  26 C26           -0.2948    -0.5979     4.4605 C.3     
  27 C27            0.7937     0.4736     4.4350 C.3     
  28 C28            0.0242    -0.8231     6.9284 C.3     
  29 C29           -2.0689    -1.6673     5.8576 C.3     
  30 C30            0.6792     4.3232     5.9207 C.1     
  31 N31            0.7441     4.4760     7.0445 N.1     
  32 H32           -2.4472    -0.1639    -0.1458 H       
  33 H33            2.1567     1.5832    -0.2167 H       
  34 H34            1.7381    -0.8026    -0.6606 H       
  35 H35           -0.5636    -1.6761    -0.6248 H       
  36 H36            1.2829     3.8069    -0.1309 H       
  37 H37           -0.4711     4.1031    -0.0689 H       
  38 H38            0.7655     5.7134     1.6548 H       
  39 H39            0.0796     1.7447     6.8821 H       
  40 H40           -1.0518     2.8613     6.0756 H       
  41 H41           -3.2202     1.9017     0.6926 H       
  42 H42           -2.0753     3.1795     1.1669 H       
  43 H43           -4.0549     1.7768    -1.4908 H       
  44 H44           -3.5435     2.9393    -2.7379 H       
  45 H45           -2.4273     1.6605    -2.2019 H       
  46 H46           -4.1036     4.6612    -1.4718 H       
  47 H47           -4.4224     3.9402     0.1241 H       
  48 H48           -3.6363     6.2245     0.4529 H       
  49 H49           -2.3596     5.1068     0.9905 H       
  50 H50           -0.6754     6.8336     0.5811 H       
  51 H51           -0.5960     7.5612    -1.0414 H       
  52 H52           -1.9521     7.9514     0.0436 H       
  53 H53           -2.1792     0.7997     6.9871 H       
  54 H54           -2.3694     0.9801     5.2260 H       
  55 H55            0.1541    -1.5782     4.3007 H       
  56 H56           -1.0191    -0.3959     3.6714 H       
  57 H57            1.2308     0.5269     3.4379 H       
  58 H58            1.5669     0.2263     5.1624 H       
  59 H59           -0.4776    -0.8073     7.8959 H       
  60 H60            0.4934    -1.7954     6.7783 H       
  61 H61            0.7861    -0.0440     6.9015 H       
  62 H62           -2.7987    -1.4898     5.0676 H       
  63 H63           -1.6001    -2.6398     5.7073 H       
  64 H64           -2.5701    -1.6513     6.8254 H       
@<TRIPOS>BOND
   1    1    2 ar
   2    1    3 ar
   3    1   17 1
   4    2    6 ar
   5    2   32 1
   6    3    4 ar
   7    3    7 1
   8    4    5 ar
   9    4   33 1
  10    5    6 ar
  11    5   34 1
  12    6   35 1
  13    7    8 1
  14    7   36 1
  15    7   37 1
  16    8    9 1
  17    8   10 2
  18    9   13 am
  19    9   38 1
  20   10   11 1
  21   11   12 2
  22   11   14 1
  23   12   13 1
  24   12   30 1
  25   13   16 2
  26   14   15 1
  27   14   27 1
  28   15   24 1
  29   15   39 1
  30   15   40 1
  31   17   18 1
  32   17   41 1
  33   17   42 1
  34   18   19 1
  35   18   20 1
  36   19   43 1
  37   19   44 1
  38   19   45 1
  39   20   21 1
  40   20   46 1
  41   20   47 1
  42   21   22 1
  43   21   48 1
  44   21   49 1
  45   22   23 1
  46   23   50 1
  47   23   51 1
  48   23   52 1
  49   24   25 1
  50   24   53 1
  51   24   54 1
  52   25   26 1
  53   25   28 1
  54   25   29 1
  55   26   27 1
  56   26   55 1
  57   26   56 1
  58   27   57 1
  59   27   58 1
  60   28   59 1
  61   28   60 1
  62   28   61 1
  63   29   62 1
  64   29   63 1
  65   29   64 1
  66   30   31 3

#	End of record

