#	Name: ASD02030296
#	Creating user name:	WinNT
#	Creation time:	15. 06. 2019 20:15

#	Modifying user name:	WinNT
#	Modification time:	15. 06. 2019 20:15

#	Program:	/corina/corina34_cracker 3.40 0067  02.08.2006

@<TRIPOS>MOLECULE
ASD02030296
  52   56    0    0    0
SMALL
NO_CHARGES


@<TRIPOS>ATOM
   1 N1            -0.5340     1.0176     0.8166 N.am    
   2 C2            -0.5981    -0.4481     0.7316 C.3     
   3 C3            -1.6674    -0.9495     1.7101 C.3     
   4 N4            -2.8975    -0.1734     1.4996 N.am    
   5 C5            -2.8334     1.2924     1.5845 C.3     
   6 C6            -1.7652     1.7935     0.6115 C.3     
   7 C7             0.6319     1.6390     1.0832 C.2     
   8 C8             1.8329     0.8449     1.4186 C.2     
   9 N9             2.9963     1.3255     1.8010 N.2     
  10 N10            1.9270    -0.4973     1.3922 N.2     
  11 C11            3.1456    -0.8089     1.7533 C.2     
  12 N12            3.8027     0.3416     2.0060 N.pl3   
  13 C13            5.1370     0.4489     2.4211 C.ar    
  14 O14            0.6959     2.8524     1.0480 O.2     
  15 C15           -4.0634    -0.7947     1.2329 C.2     
  16 C16           -5.3117    -0.0135     1.1417 C.ar    
  17 O17           -4.0865    -1.9991     1.0675 O.2     
  18 C18            5.6963     1.6988     2.6480 C.ar    
  19 C19            7.0128     1.8012     3.0575 C.ar    
  20 C20            7.7722     0.6589     3.2405 C.ar    
  21 C21            7.2169    -0.5872     3.0145 C.ar    
  22 C22            5.9003    -0.6956     2.6118 C.ar    
  23 C23           -1.4891     3.2758     0.8710 C.3     
  24 C24           -5.6599     0.8758     2.1627 C.ar    
  25 Cl25           7.7139     3.3637     3.3417 Cl      
  26 C26           -6.1498    -0.1548     0.0300 C.ar    
  27 C27           -7.3259     0.5876    -0.0459 C.ar    
  28 C28           -7.6595     1.4591     0.9766 C.ar    
  29 C29           -6.8262     1.6033     2.0739 C.ar    
  30 O30           -6.0491    -0.9296    -1.0856 O.3     
  31 C31           -7.3720    -0.9613    -1.6532 C.3     
  32 O32           -7.9627     0.2758    -1.2127 O.3     
  33 H33           -0.8631    -0.7445    -0.2833 H       
  34 H34            0.3698    -0.8727     0.9984 H       
  35 H35           -1.8651    -2.0055     1.5263 H       
  36 H36           -1.3193    -0.8127     2.7340 H       
  37 H37           -3.8013     1.7170     1.3178 H       
  38 H38           -2.5684     1.5888     2.5994 H       
  39 H39           -2.1109     1.6571    -0.4132 H       
  40 H40            3.5507    -1.8066     1.8371 H       
  41 H41            5.1038     2.5904     2.5045 H       
  42 H42            8.8006     0.7408     3.5600 H       
  43 H43            7.8121    -1.4769     3.1575 H       
  44 H44            5.4675    -1.6693     2.4359 H       
  45 H45           -1.0301     3.3935     1.8526 H       
  46 H46           -0.8138     3.6589     0.1059 H       
  47 H47           -2.4265     3.8310     0.8393 H       
  48 H48           -5.0149     0.9920     3.0211 H       
  49 H49           -8.5718     2.0339     0.9160 H       
  50 H50           -7.0952     2.2858     2.8665 H       
  51 H51           -7.3212    -0.9954    -2.7415 H       
  52 H52           -7.9337    -1.8124    -1.2682 H       
@<TRIPOS>BOND
   1    1    2 1
   2    1    7 am
   3    1    6 1
   4    2    3 1
   5    2   33 1
   6    2   34 1
   7    3    4 1
   8    3   35 1
   9    3   36 1
  10    4    5 1
  11    4   15 am
  12    5    6 1
  13    5   37 1
  14    5   38 1
  15    6   23 1
  16    6   39 1
  17    7    8 1
  18    7   14 2
  19    8    9 2
  20    8   10 1
  21    9   12 1
  22   10   11 2
  23   11   12 1
  24   11   40 1
  25   12   13 1
  26   13   18 ar
  27   13   22 ar
  28   15   16 1
  29   15   17 2
  30   16   26 ar
  31   16   24 ar
  32   18   19 ar
  33   18   41 1
  34   19   20 ar
  35   19   25 1
  36   20   21 ar
  37   20   42 1
  38   21   22 ar
  39   21   43 1
  40   22   44 1
  41   23   45 1
  42   23   46 1
  43   23   47 1
  44   24   29 ar
  45   24   48 1
  46   26   27 ar
  47   26   30 1
  48   27   28 ar
  49   27   32 1
  50   28   29 ar
  51   28   49 1
  52   29   50 1
  53   30   31 1
  54   31   32 1
  55   31   51 1
  56   31   52 1

#	End of record

