#	Name: ASD01208596
#	Creating user name:	WinNT
#	Creation time:	15. 06. 2019 19:10

#	Modifying user name:	WinNT
#	Modification time:	15. 06. 2019 19:10

#	Program:	/corina/corina34_cracker 3.40 0067  02.08.2006

@<TRIPOS>MOLECULE
ASD01208596
  76   78    0    0    0
SMALL
NO_CHARGES


@<TRIPOS>ATOM
   1 O1             0.7143     0.8014     2.9547 O.3     
   2 C2             0.7028    -0.2308     2.0839 C.2     
   3 N3             1.7694    -0.3009     1.3420 N.2     
   4 C4             2.6748     0.8007     1.7227 C.3     
   5 C5             2.0773     1.2574     3.0757 C.3     
   6 C6             4.1071     0.2934     1.9015 C.3     
   7 N7            -1.5604    -1.1670     2.7368 N.pl3   
   8 C8            -0.4099    -1.1860     1.9843 C.2     
   9 C9            -0.4824    -2.2570     1.1202 C.2     
  10 C10           -1.6991    -2.9006     1.3519 C.2     
  11 C11           -2.3496    -2.2140     2.3520 C.2     
  12 C12           -3.6745    -2.5517     2.9137 C.ar    
  13 C13           -4.2234    -1.7695     3.9308 C.ar    
  14 C14           -5.4651    -2.0891     4.4538 C.ar    
  15 C15           -6.1633    -3.1858     3.9684 C.ar    
  16 C16           -5.6213    -3.9660     2.9575 C.ar    
  17 C17           -4.3824    -3.6500     2.4247 C.ar    
  18 O18           -6.3092    -5.0390     2.4857 O.3     
  19 Si19          -7.2985    -4.6952     1.2354 Si      
  20 C20           -7.1941    -7.4217     0.7187 C.3     
  21 C21           -8.1741    -6.2470     0.6914 C.3     
  22 C22           -9.3403    -6.5336     1.6393 C.3     
  23 C23           -9.5542    -3.1912     0.6338 C.3     
  24 C24           -8.5553    -3.4274     1.7684 C.3     
  25 C25           -9.2992    -3.9354     3.0052 C.3     
  26 C26           -5.1093    -4.9443    -0.4548 C.3     
  27 C27           -6.2962    -4.0183    -0.1816 C.3     
  28 C28           -7.1741    -3.9320    -1.4318 C.3     
  29 O29           -6.0006    -1.3280     5.4443 O.3     
  30 C30           -5.6238     0.0809     7.3713 C.3     
  31 C31           -5.2020    -0.2510     5.9385 C.3     
  32 C32           -5.3993     0.9794     5.0508 C.3     
  33 O33           -6.9650     0.5741     7.3709 O.3     
  34 C34           -7.4591     0.9157     8.6675 C.3     
  35 H35            2.6375     1.6061     0.9892 H       
  36 H36            2.1196     2.3420     3.1759 H       
  37 H37            2.5805     0.7692     3.9103 H       
  38 H38            4.4674    -0.1177     0.9585 H       
  39 H39            4.7496     1.1192     2.2070 H       
  40 H40            4.1247    -0.4828     2.6666 H       
  41 H41           -1.7742    -0.5210     3.4281 H       
  42 H42            0.2650    -2.5452     0.3959 H       
  43 H43           -2.0640    -3.7784     0.8393 H       
  44 H44           -3.6804    -0.9162     4.3096 H       
  45 H45           -7.1312    -3.4327     4.3791 H       
  46 H46           -3.9630    -4.2556     1.6348 H       
  47 H47           -7.7350    -8.3504     0.5367 H       
  48 H48           -6.4393    -7.2832    -0.0554 H       
  49 H49           -6.7100    -7.4684     1.6941 H       
  50 H50           -8.5536    -6.1139    -0.3217 H       
  51 H51          -10.1096    -5.7723     1.5095 H       
  52 H52           -9.7586    -7.5148     1.4145 H       
  53 H53           -8.9837    -6.5179     2.6692 H       
  54 H54           -9.9733    -4.1452     0.3141 H       
  55 H55          -10.3559    -2.5415     0.9849 H       
  56 H56           -9.0449    -2.7185    -0.2061 H       
  57 H57           -8.0492    -2.4922     2.0075 H       
  58 H58           -8.5778    -4.2433     3.7621 H       
  59 H59           -9.9269    -3.1387     3.4043 H       
  60 H60           -9.9228    -4.7860     2.7302 H       
  61 H61           -5.4623    -5.8538    -0.9408 H       
  62 H62           -4.3959    -4.4382    -1.1053 H       
  63 H63           -4.6240    -5.2004     0.4870 H       
  64 H64           -5.9301    -3.0242     0.0745 H       
  65 H65           -7.6818    -4.8842    -1.5857 H       
  66 H66           -7.9142    -3.1424    -1.3023 H       
  67 H67           -6.5516    -3.7080    -2.2981 H       
  68 H68           -5.5676    -0.8187     7.9842 H       
  69 H69           -4.9574     0.8409     7.7794 H       
  70 H70           -4.1517    -0.5425     5.9273 H       
  71 H71           -4.7902     1.8009     5.4278 H       
  72 H72           -5.0988     0.7430     4.0301 H       
  73 H73           -6.4495     1.2709     5.0621 H       
  74 H74           -7.4410     0.0335     9.3073 H       
  75 H75           -6.8308     1.6930     9.1025 H       
  76 H76           -8.4823     1.2814     8.5817 H       
@<TRIPOS>BOND
   1    1    2 1
   2    1    5 1
   3    2    3 2
   4    2    8 1
   5    3    4 1
   6    4    5 1
   7    4    6 1
   8    4   35 1
   9    5   36 1
  10    5   37 1
  11    6   38 1
  12    6   39 1
  13    6   40 1
  14    7    8 1
  15    7   11 1
  16    7   41 1
  17    8    9 2
  18    9   10 1
  19    9   42 1
  20   10   11 2
  21   10   43 1
  22   11   12 1
  23   12   13 ar
  24   12   17 ar
  25   13   14 ar
  26   13   44 1
  27   14   15 ar
  28   14   29 1
  29   15   16 ar
  30   15   45 1
  31   16   17 ar
  32   16   18 1
  33   17   46 1
  34   18   19 1
  35   19   21 1
  36   19   24 1
  37   19   27 1
  38   20   21 1
  39   20   47 1
  40   20   48 1
  41   20   49 1
  42   21   22 1
  43   21   50 1
  44   22   51 1
  45   22   52 1
  46   22   53 1
  47   23   24 1
  48   23   54 1
  49   23   55 1
  50   23   56 1
  51   24   25 1
  52   24   57 1
  53   25   58 1
  54   25   59 1
  55   25   60 1
  56   26   27 1
  57   26   61 1
  58   26   62 1
  59   26   63 1
  60   27   28 1
  61   27   64 1
  62   28   65 1
  63   28   66 1
  64   28   67 1
  65   29   31 1
  66   30   31 1
  67   30   33 1
  68   30   68 1
  69   30   69 1
  70   31   32 1
  71   31   70 1
  72   32   71 1
  73   32   72 1
  74   32   73 1
  75   33   34 1
  76   34   74 1
  77   34   75 1
  78   34   76 1

#	End of record

