#	Name: ASD00820001
#	Creating user name:	WinNT
#	Creation time:	15. 06. 2019 18:37

#	Modifying user name:	WinNT
#	Modification time:	15. 06. 2019 18:37

#	Program:	/corina/corina34_cracker 3.40 0067  02.08.2006

@<TRIPOS>MOLECULE
ASD00820001
  39   41    0    0    0
SMALL
NO_CHARGES


@<TRIPOS>ATOM
   1 O1             1.9579     3.3295    -1.6342 O.2     
   2 C2             1.1171     3.1218    -0.7769 C.2     
   3 C3             1.2928     2.0435     0.1037 C.2     
   4 C4             2.5074     1.1594    -0.0157 C.3     
   5 C5             2.6906     0.3669     1.2802 C.3     
   6 C6             4.0085    -0.3629     1.2406 C.2     
   7 C7             4.4297    -1.2214     2.4053 C.3     
   8 O8             4.7271    -0.2598     0.2755 O.2     
   9 C9             2.3224     0.2045    -1.1667 C.ar    
  10 C10            3.1678     0.2662    -2.2587 C.ar    
  11 C11            2.9981    -0.6097    -3.3145 C.ar    
  12 C12            1.9833    -1.5477    -3.2782 C.ar    
  13 C13            1.1385    -1.6100    -2.1858 C.ar    
  14 C14            1.3109    -0.7369    -1.1280 C.ar    
  15 C15            0.3576     1.7986     1.0710 C.2     
  16 O16            0.5015     0.7668     1.9336 O.3     
  17 O17            0.0512     3.9343    -0.6980 O.3     
  18 C18           -0.9116     3.7527     0.2316 C.ar    
  19 C19           -0.8094     2.6913     1.1455 C.ar    
  20 C20           -1.8028     2.4997     2.1076 C.ar    
  21 C21           -2.8831     3.3536     2.1500 C.ar    
  22 C22           -2.9858     4.3982     1.2437 C.ar    
  23 C23           -2.0059     4.6050     0.2951 C.ar    
  24 H24            3.3891     1.7753    -0.1926 H       
  25 H25            2.6793     1.0506     2.1290 H       
  26 H26            1.8792    -0.3536     1.3832 H       
  27 H27            3.6953    -2.0122     2.5581 H       
  28 H28            5.4032    -1.6651     2.1964 H       
  29 H29            4.4953    -0.6080     3.3039 H       
  30 H30            3.9607     0.9990    -2.2871 H       
  31 H31            3.6582    -0.5611    -4.1680 H       
  32 H32            1.8503    -2.2316    -4.1034 H       
  33 H33            0.3455    -2.3426    -2.1576 H       
  34 H34            0.6532    -0.7880    -0.2729 H       
  35 H35           -0.2179     0.6870     2.5749 H       
  36 H36           -1.7251     1.6867     2.8141 H       
  37 H37           -3.6538     3.2085     2.8924 H       
  38 H38           -3.8372     5.0613     1.2864 H       
  39 H39           -2.0939     5.4244    -0.4030 H       
@<TRIPOS>BOND
   1    1    2 2
   2    2    3 1
   3    2   17 1
   4    3    4 1
   5    3   15 2
   6    4    5 1
   7    4    9 1
   8    4   24 1
   9    5    6 1
  10    5   25 1
  11    5   26 1
  12    6    7 1
  13    6    8 2
  14    7   27 1
  15    7   28 1
  16    7   29 1
  17    9   10 ar
  18    9   14 ar
  19   10   11 ar
  20   10   30 1
  21   11   12 ar
  22   11   31 1
  23   12   13 ar
  24   12   32 1
  25   13   14 ar
  26   13   33 1
  27   14   34 1
  28   15   16 1
  29   15   19 1
  30   16   35 1
  31   17   18 1
  32   18   19 ar
  33   18   23 ar
  34   19   20 ar
  35   20   21 ar
  36   20   36 1
  37   21   22 ar
  38   21   37 1
  39   22   23 ar
  40   22   38 1
  41   23   39 1

#	End of record

