#	Name: ASD01890447
#	Creating user name:	WinNT
#	Creation time:	15. 06. 2019 19:51

#	Modifying user name:	WinNT
#	Modification time:	15. 06. 2019 19:51

#	Program:	/corina/corina34_cracker 3.40 0067  02.08.2006

@<TRIPOS>MOLECULE
ASD01890447
  35   36    0    0    0
SMALL
NO_CHARGES


@<TRIPOS>ATOM
   1 C1             0.4012     0.2169    -0.3094 C.1     
   2 C2            -0.0604     1.5634     0.0657 C.3     
   3 C3             1.1031     2.4214     0.3431 C.1     
   4 N4             0.7575    -0.8222    -0.5988 N.1     
   5 N5             2.0010     3.0836     0.5571 N.1     
   6 C6            -0.8734     2.1624    -1.0837 C.3     
   7 C7            -2.1517     1.3459    -1.2839 C.3     
   8 C8            -2.8805     1.8451    -2.5048 C.2     
   9 C9            -1.2344     3.5880    -0.7541 C.ar    
  10 C10           -0.8110     4.6158    -1.5757 C.ar    
  11 C11           -1.1421     5.9234    -1.2734 C.ar    
  12 C12           -1.8970     6.2031    -0.1496 C.ar    
  13 C13           -2.3211     5.1752     0.6716 C.ar    
  14 C14           -1.9936     3.8672     0.3668 C.ar    
  15 O15           -2.3753     2.6944    -3.2075 O.2     
  16 C16           -4.2051     1.3020    -2.8442 C.ar    
  17 C17           -4.8847     1.7629    -3.9766 C.ar    
  18 C18           -6.1254     1.2493    -4.2880 C.ar    
  19 C19           -6.6992     0.2794    -3.4830 C.ar    
  20 C20           -6.0327    -0.1815    -2.3600 C.ar    
  21 C21           -4.7886     0.3181    -2.0392 C.ar    
  22 I22           -8.5854    -0.4939    -3.9662 I       
  23 H23           -0.6845     1.4984     0.9570 H       
  24 H24           -0.2808     2.1399    -1.9982 H       
  25 H25           -1.8943     0.2953    -1.4187 H       
  26 H26           -2.7925     1.4536    -0.4088 H       
  27 H27           -0.2213     4.3973    -2.4537 H       
  28 H28           -0.8107     6.7265    -1.9150 H       
  29 H29           -2.1550     7.2248     0.0870 H       
  30 H30           -2.9105     5.3937     1.5497 H       
  31 H31           -2.3281     3.0638     1.0064 H       
  32 H32           -4.4386     2.5194    -4.6051 H       
  33 H33           -6.6515     1.6044    -5.1618 H       
  34 H34           -6.4866    -0.9378    -1.7368 H       
  35 H35           -4.2677    -0.0461    -1.1660 H       
@<TRIPOS>BOND
   1    1    2 1
   2    1    4 3
   3    2    3 1
   4    2    6 1
   5    2   23 1
   6    3    5 3
   7    6    7 1
   8    6    9 1
   9    6   24 1
  10    7    8 1
  11    7   25 1
  12    7   26 1
  13    8   15 2
  14    8   16 1
  15    9   10 ar
  16    9   14 ar
  17   10   11 ar
  18   10   27 1
  19   11   12 ar
  20   11   28 1
  21   12   13 ar
  22   12   29 1
  23   13   14 ar
  24   13   30 1
  25   14   31 1
  26   16   17 ar
  27   16   21 ar
  28   17   18 ar
  29   17   32 1
  30   18   19 ar
  31   18   33 1
  32   19   20 ar
  33   19   22 1
  34   20   21 ar
  35   20   34 1
  36   21   35 1

#	End of record

