#	Name: ASD03090194
#	Creating user name:	WinNT
#	Creation time:	15. 06. 2019 20:28

#	Modifying user name:	WinNT
#	Modification time:	15. 06. 2019 20:28

#	Program:	/corina/corina34_cracker 3.40 0067  02.08.2006

@<TRIPOS>MOLECULE
ASD03090194
  40   42    0    0    0
SMALL
NO_CHARGES


@<TRIPOS>ATOM
   1 N1             0.4451     1.5144     1.4655 N.ar    
   2 C2             0.4075     0.1952     1.4320 C.ar    
   3 C3             1.5361    -0.5383     1.1217 C.ar    
   4 C4             2.7280     0.1378     0.8412 C.ar    
   5 C5             2.7212     1.5361     0.8885 C.ar    
   6 C6             1.5487     2.1896     1.2074 C.ar    
   7 C7             3.9626    -0.6057     0.5041 C.2     
   8 N8             5.7444    -3.4535    -0.5300 N.pl3   
   9 C9             4.8186    -4.4436    -0.8751 C.ar    
  10 C10            3.6026    -4.0904    -1.4451 C.ar    
  11 C11            2.6899    -5.0699    -1.7851 C.ar    
  12 C12            2.9865    -6.4029    -1.5576 C.ar    
  13 C13            4.1986    -6.7576    -0.9893 C.ar    
  14 C14            5.1166    -5.7822    -0.6535 C.ar    
  15 N15            4.0281    -1.8617     0.1104 N.2     
  16 C16            5.3000    -2.2001    -0.1048 C.2     
  17 N17            6.0674    -1.1645     0.1483 N.2     
  18 N18            5.2213    -0.1145     0.5402 N.pl3   
  19 C19            5.6239     1.2415     0.9218 C.3     
  20 C20            5.7291     2.1138    -0.3308 C.3     
  21 N21            6.1327     3.4734     0.0518 N.3     
  22 F22            2.0920    -7.3592    -1.8901 F       
  23 Cl23          -1.0798    -0.6285     1.7832 Cl      
  24 C24            4.5186    -8.2095    -0.7429 C.3     
  25 F25            5.7887    -8.3158    -0.1662 F       
  26 F26            3.5658    -8.7565     0.1233 F       
  27 F27            4.4981    -8.9041    -1.9571 F       
  28 H28            1.4989    -1.6173     1.0963 H       
  29 H29            3.6208     2.0957     0.6788 H       
  30 H30            1.5341     3.2688     1.2462 H       
  31 H31            6.6951    -3.6377    -0.5860 H       
  32 H32            3.3705    -3.0505    -1.6221 H       
  33 H33            1.7440    -4.7956    -2.2284 H       
  34 H34            6.0619    -6.0592    -0.2107 H       
  35 H35            4.8807     1.6644     1.5977 H       
  36 H36            6.5916     1.2059     1.4221 H       
  37 H37            6.4722     1.6908    -1.0068 H       
  38 H38            4.7613     2.1493    -0.8311 H       
  39 H39            6.2092     4.0695    -0.7587 H       
  40 H40            5.4937     3.8634     0.7284 H       
@<TRIPOS>BOND
   1    1    2 ar
   2    1    6 ar
   3    2    3 ar
   4    2   23 1
   5    3    4 ar
   6    3   28 1
   7    4    5 ar
   8    4    7 1
   9    5    6 ar
  10    5   29 1
  11    6   30 1
  12    7   15 2
  13    7   18 1
  14    8    9 1
  15    8   16 1
  16    8   31 1
  17    9   10 ar
  18    9   14 ar
  19   10   11 ar
  20   10   32 1
  21   11   12 ar
  22   11   33 1
  23   12   13 ar
  24   12   22 1
  25   13   14 ar
  26   13   24 1
  27   14   34 1
  28   15   16 1
  29   16   17 2
  30   17   18 1
  31   18   19 1
  32   19   20 1
  33   19   35 1
  34   19   36 1
  35   20   21 1
  36   20   37 1
  37   20   38 1
  38   21   39 1
  39   21   40 1
  40   24   25 1
  41   24   26 1
  42   24   27 1

#	End of record

