#	Name: ASD05313136
#	Creating user name:	WinNT
#	Creation time:	15. 06. 2019 20:58

#	Modifying user name:	WinNT
#	Modification time:	15. 06. 2019 20:58

#	Program:	/corina/corina34_cracker 3.40 0067  02.08.2006

@<TRIPOS>MOLECULE
ASD05313136
  39   42    0    0    0
SMALL
NO_CHARGES


@<TRIPOS>ATOM
   1 C1            -0.0908     0.9059     1.1552 C.2     
   2 C2             0.1428    -0.5481     0.8218 C.3     
   3 N3             0.9086     1.8288     1.2510 N.pl3   
   4 N4             1.5457    -0.6677     0.3817 N.am    
   5 C5             2.5767     0.0498     1.1466 C.3     
   6 C6             2.3292     1.5592     1.0374 C.3     
   7 N7            -0.9892     2.7575     1.6510 N.2     
   8 N8            -1.2114     1.5124     1.4032 N.2     
   9 C9             0.3028     3.0046     1.5721 C.2     
  10 C10            0.9668     4.3076     1.7927 C.ar    
  11 C11            0.6304     5.0874     2.9018 C.ar    
  12 C12            1.2568     6.3056     3.1014 C.ar    
  13 C13            2.2139     6.7490     2.2038 C.ar    
  14 C14            2.5492     5.9790     1.1046 C.ar    
  15 C15            1.9360     4.7605     0.8971 C.ar    
  16 F16            0.9340     7.0630     4.1726 F       
  17 F17           -0.3036     4.6543     3.7766 F       
  18 C18            1.8736    -1.4143    -0.6915 C.2     
  19 O19            3.0189    -1.4226    -1.0992 O.2     
  20 C20            0.8418    -2.2220    -1.3720 C.ar    
  21 C21            0.7590    -2.2232    -2.7676 C.ar    
  22 C22           -0.2073    -2.9806    -3.3975 C.ar    
  23 C23           -1.0939    -3.7386    -2.6489 C.ar    
  24 C24           -1.0160    -3.7403    -1.2643 C.ar    
  25 C25           -0.0515    -2.9923    -0.6242 C.ar    
  26 F26           -2.0381    -4.4784    -3.2705 F       
  27 Cl27           1.8687    -1.2736    -3.7059 Cl      
  28 H28           -0.0238    -1.1639     1.7057 H       
  29 H29           -0.5267    -0.8581     0.0195 H       
  30 H30            2.5296    -0.2521     2.1929 H       
  31 H31            3.5608    -0.1878     0.7427 H       
  32 H32            2.6206     1.9056     0.0458 H       
  33 H33            2.9166     2.0802     1.7934 H       
  34 H34            2.7002     7.7001     2.3626 H       
  35 H35            3.2961     6.3311     0.4085 H       
  36 H36            2.2029     4.1599     0.0402 H       
  37 H37           -0.2731    -2.9825    -4.4755 H       
  38 H38           -1.7101    -4.3324    -0.6864 H       
  39 H39            0.0108    -2.9986     0.4539 H       
@<TRIPOS>BOND
   1    1    2 1
   2    1    3 1
   3    1    8 2
   4    2    4 1
   5    2   28 1
   6    2   29 1
   7    3    6 1
   8    3    9 1
   9    4    5 1
  10    4   18 am
  11    5    6 1
  12    5   30 1
  13    5   31 1
  14    6   32 1
  15    6   33 1
  16    7    8 1
  17    7    9 2
  18    9   10 1
  19   10   11 ar
  20   10   15 ar
  21   11   12 ar
  22   11   17 1
  23   12   13 ar
  24   12   16 1
  25   13   14 ar
  26   13   34 1
  27   14   15 ar
  28   14   35 1
  29   15   36 1
  30   18   19 2
  31   18   20 1
  32   20   21 ar
  33   20   25 ar
  34   21   22 ar
  35   21   27 1
  36   22   23 ar
  37   22   37 1
  38   23   24 ar
  39   23   26 1
  40   24   25 ar
  41   24   38 1
  42   25   39 1

#	End of record

