#	Name: ASD01940422
#	Creating user name:	WinNT
#	Creation time:	15. 06. 2019 20:12

#	Modifying user name:	WinNT
#	Modification time:	15. 06. 2019 20:12

#	Program:	/corina/corina34_cracker 3.40 0067  02.08.2006

@<TRIPOS>MOLECULE
ASD01940422
  26   26    0    0    0
SMALL
NO_CHARGES


@<TRIPOS>ATOM
   1 N1            -0.0169     1.3942     0.0097 N.pl3   
   2 C2             0.0021    -0.0041     0.0020 C.ar    
   3 C3             1.2152    -0.6849    -0.0132 C.ar    
   4 C4             1.2293    -2.0672    -0.0208 C.ar    
   5 C5             0.0391    -2.7721    -0.0138 C.ar    
   6 C6            -1.1674    -2.0977     0.0014 C.ar    
   7 C7            -1.1892    -0.7160     0.0153 C.ar    
   8 Si8            0.0624    -4.6399    -0.0253 Si      
   9 C9             0.0869    -5.2715     1.7272 C.3     
  10 C10           -1.4592    -5.2746    -0.8929 C.3     
  11 C11            1.5827    -5.2365    -0.9217 C.3     
  12 F12            2.3775     0.0037    -0.0210 F       
  13 H13            0.8165     1.8906     0.0044 H       
  14 H14           -0.8634     1.8678     0.0163 H       
  15 H15            2.1703    -2.5971    -0.0327 H       
  16 H16           -2.0945    -2.6516     0.0069 H       
  17 H17           -2.1326    -0.1905     0.0316 H       
  18 H18           -0.8026    -4.9225     2.2517 H       
  19 H19            0.1005    -6.3614     1.7204 H       
  20 H20            0.9771    -4.9002     2.2348 H       
  21 H21           -1.4735    -4.9051    -1.9183 H       
  22 H22           -1.4456    -6.3645    -0.8997 H       
  23 H23           -2.3487    -4.9256    -0.3685 H       
  24 H24            2.4730    -4.8651    -0.4141 H       
  25 H25            1.5963    -6.3264    -0.9285 H       
  26 H26            1.5684    -4.8669    -1.9471 H       
@<TRIPOS>BOND
   1    1    2 1
   2    1   13 1
   3    1   14 1
   4    2    3 ar
   5    2    7 ar
   6    3    4 ar
   7    3   12 1
   8    4    5 ar
   9    4   15 1
  10    5    6 ar
  11    5    8 1
  12    6    7 ar
  13    6   16 1
  14    7   17 1
  15    8    9 1
  16    8   10 1
  17    8   11 1
  18    9   18 1
  19    9   19 1
  20    9   20 1
  21   10   21 1
  22   10   22 1
  23   10   23 1
  24   11   24 1
  25   11   25 1
  26   11   26 1

#	End of record

