#	Name: ASD08150466
#	Creating user name:	WinNT
#	Creation time:	15. 06. 2019 21:16

#	Modifying user name:	WinNT
#	Modification time:	15. 06. 2019 21:16

#	Program:	/corina/corina34_cracker 3.40 0067  02.08.2006

@<TRIPOS>MOLECULE
ASD08150466
  55   58    0    0    0
SMALL
NO_CHARGES


@<TRIPOS>ATOM
   1 C1            -0.0184     1.5028     0.0103 C.2     
   2 C2             0.0021    -0.0041     0.0020 C.3     
   3 C3            -0.5881    -0.5293     1.3123 C.3     
   4 O4             1.0236     2.1234     0.0037 O.2     
   5 O5             1.3494    -0.4614    -0.1307 O.3     
   6 N6            -1.1946     2.1607     0.0195 N.am    
   7 C7            -1.2371     3.6309     0.0277 C.3     
   8 C8            -2.1670     4.0972    -1.0975 C.3     
   9 N9            -3.4717     3.4372    -0.9554 N.3     
  10 C10           -3.3510     1.9807    -1.1034 C.3     
  11 C11           -2.4697     1.4277     0.0154 C.3     
  12 C12           -4.4452     3.9844    -1.9097 C.3     
  13 C13           -9.8482     1.4094    -0.9057 C.ar    
  14 N14           -8.9725     2.3425    -0.6231 N.ar    
  15 C15           -7.7877     2.4097    -1.2731 C.ar    
  16 C16           -7.5286     1.4515    -2.2556 C.ar    
  17 C17           -8.4995     0.4721    -2.5208 C.ar    
  18 N18           -9.6329     0.4886    -1.8298 N.ar    
  19 C19           -6.7306     3.3202    -1.1185 C.2     
  20 C20           -5.6857     3.1287    -1.9083 C.2     
  21 S21           -5.9419     1.7414    -2.9534 S.3     
  22 O22           -7.9431    -3.1141    -4.4437 O.3     
  23 C23           -9.1655    -2.4210    -4.7099 C.3     
  24 C24           -9.4256    -1.4084    -3.5914 C.3     
  25 N25           -8.2787    -0.4945    -3.4883 N.3     
  26 C26           -7.0414    -1.2401    -3.2154 C.3     
  27 C27           -6.8051    -2.2544    -4.3376 C.3     
  28 C28           -6.7822     4.4449    -0.1168 C.3     
  29 Cl29         -11.3457     1.3769    -0.0281 Cl      
  30 H30           -0.5904    -0.3709    -0.8362 H       
  31 H31           -1.6158    -0.1805     1.4135 H       
  32 H32           -0.5733    -1.6192     1.3063 H       
  33 H33            0.0044    -0.1625     2.1504 H       
  34 H34            1.9350    -0.1721     0.5823 H       
  35 H35           -1.6189     3.9808     0.9868 H       
  36 H36           -0.2352     4.0271    -0.1375 H       
  37 H37           -2.2975     5.1777    -1.0373 H       
  38 H38           -1.7306     3.8364    -2.0617 H       
  39 H39           -4.3401     1.5262    -1.0474 H       
  40 H40           -2.8981     1.7493    -2.0675 H       
  41 H41           -2.2822     0.3679    -0.1578 H       
  42 H42           -2.9721     1.5617     0.9733 H       
  43 H43           -4.7057     5.0023    -1.6197 H       
  44 H44           -4.0099     3.9915    -2.9090 H       
  45 H45           -9.0873    -1.8982    -5.6632 H       
  46 H46           -9.9874    -3.1357    -4.7522 H       
  47 H47          -10.3262    -0.8380    -3.8191 H       
  48 H48           -9.5571    -1.9355    -2.6465 H       
  49 H49           -6.2015    -0.5469    -3.1686 H       
  50 H50           -7.1347    -1.7646    -2.2645 H       
  51 H51           -5.9200    -2.8486    -4.1108 H       
  52 H52           -6.6584    -1.7268    -5.2801 H       
  53 H53           -6.3710     4.1044     0.8334 H       
  54 H54           -6.1963     5.2869    -0.4854 H       
  55 H55           -7.8168     4.7571     0.0260 H       
@<TRIPOS>BOND
   1    1    2 1
   2    1    4 2
   3    1    6 am
   4    2    3 1
   5    2    5 1
   6    2   30 1
   7    3   31 1
   8    3   32 1
   9    3   33 1
  10    5   34 1
  11    6    7 1
  12    6   11 1
  13    7    8 1
  14    7   35 1
  15    7   36 1
  16    8    9 1
  17    8   37 1
  18    8   38 1
  19    9   10 1
  20    9   12 1
  21   10   11 1
  22   10   39 1
  23   10   40 1
  24   11   41 1
  25   11   42 1
  26   12   20 1
  27   12   43 1
  28   12   44 1
  29   13   14 ar
  30   13   18 ar
  31   13   29 1
  32   14   15 ar
  33   15   16 ar
  34   15   19 1
  35   16   17 ar
  36   16   21 1
  37   17   18 ar
  38   17   25 1
  39   19   20 2
  40   19   28 1
  41   20   21 1
  42   22   23 1
  43   22   27 1
  44   23   24 1
  45   23   45 1
  46   23   46 1
  47   24   25 1
  48   24   47 1
  49   24   48 1
  50   25   26 1
  51   26   27 1
  52   26   49 1
  53   26   50 1
  54   27   51 1
  55   27   52 1
  56   28   53 1
  57   28   54 1
  58   28   55 1

#	End of record

