#	Name: ASD01918609
#	Creating user name:	WinNT
#	Creation time:	15. 06. 2019 20:11

#	Modifying user name:	WinNT
#	Modification time:	15. 06. 2019 20:11

#	Program:	/corina/corina34_cracker 3.40 0067  02.08.2006

@<TRIPOS>MOLECULE
ASD01918609
  40   42    0    0    0
SMALL
NO_CHARGES


@<TRIPOS>ATOM
   1 F1            -1.2817     2.1819     2.3902 F       
   2 C2            -0.6660     2.4532     1.2186 C.ar    
   3 C3            -1.2231     2.0196     0.0272 C.ar    
   4 C4            -0.5954     2.2962    -1.1734 C.ar    
   5 C5             0.5893     3.0058    -1.1880 C.ar    
   6 C6             1.1516     3.4425     0.0047 C.ar    
   7 C7             0.5180     3.1690     1.2091 C.ar    
   8 N8             2.3528     4.1622    -0.0083 N.am    
   9 C9             2.3193     5.5196    -0.0978 C.2     
  10 C10            3.4605     6.2410    -0.1126 C.2     
  11 C11            4.7052     5.5848    -0.0341 C.2     
  12 O12            5.8588     6.2947    -0.0473 O.3     
  13 C13            7.0777     5.5534     0.0359 C.3     
  14 C14            8.2645     6.5185     0.0070 C.3     
  15 O15            8.2401     7.3387     1.1770 O.3     
  16 C16            9.2332     8.2572     1.3073 C.ar    
  17 C17           10.2077     8.3708     0.3265 C.ar    
  18 C18           11.2159     9.3057     0.4611 C.ar    
  19 C19           11.2544    10.1274     1.5724 C.ar    
  20 C20           10.2846    10.0159     2.5515 C.ar    
  21 C21            9.2709     9.0868     2.4186 C.ar    
  22 C22            4.7310     4.2053     0.0571 C.2     
  23 C23            3.5221     3.5006     0.0735 C.2     
  24 O24            3.5282     2.2823     0.1578 O.2     
  25 H25           -2.1493     1.4643     0.0358 H       
  26 H26           -1.0320     1.9566    -2.1010 H       
  27 H27            1.0786     3.2208    -2.1265 H       
  28 H28            0.9507     3.5108     2.1376 H       
  29 H29            1.3675     6.0264    -0.1581 H       
  30 H30            3.4196     7.3179    -0.1847 H       
  31 H31            7.0943     4.9848     0.9657 H       
  32 H32            7.1452     4.8690    -0.8097 H       
  33 H33            9.1943     5.9503    -0.0191 H       
  34 H34            8.1988     7.1487    -0.8799 H       
  35 H35           10.1784     7.7287    -0.5414 H       
  36 H36           11.9747     9.3945    -0.3022 H       
  37 H37           12.0436    10.8574     1.6759 H       
  38 H38           10.3171    10.6586     3.4188 H       
  39 H39            8.5111     9.0031     3.1816 H       
  40 H40            5.6719     3.6787     0.1184 H       
@<TRIPOS>BOND
   1    1    2 1
   2    2    7 ar
   3    2    3 ar
   4    3    4 ar
   5    3   25 1
   6    4    5 ar
   7    4   26 1
   8    5    6 ar
   9    5   27 1
  10    6    7 ar
  11    6    8 1
  12    7   28 1
  13    8   23 am
  14    8    9 1
  15    9   10 2
  16    9   29 1
  17   10   11 1
  18   10   30 1
  19   11   12 1
  20   11   22 2
  21   12   13 1
  22   13   14 1
  23   13   31 1
  24   13   32 1
  25   14   15 1
  26   14   33 1
  27   14   34 1
  28   15   16 1
  29   16   21 ar
  30   16   17 ar
  31   17   18 ar
  32   17   35 1
  33   18   19 ar
  34   18   36 1
  35   19   20 ar
  36   19   37 1
  37   20   21 ar
  38   20   38 1
  39   21   39 1
  40   22   23 1
  41   22   40 1
  42   23   24 2

#	End of record

