#	Name: ASD08070148
#	Creating user name:	WinNT
#	Creation time:	15. 06. 2019 21:14

#	Modifying user name:	WinNT
#	Modification time:	15. 06. 2019 21:14

#	Program:	/corina/corina34_cracker 3.40 0067  02.08.2006

@<TRIPOS>MOLECULE
ASD08070148
  38   40    0    0    0
SMALL
NO_CHARGES


@<TRIPOS>ATOM
   1 C1            -0.0166     1.3694     0.0096 C.2     
   2 C2             0.0021    -0.0041     0.0020 C.2     
   3 N3            -2.3989    -0.4631     0.0221 N.am    
   4 C4            -1.1378    -0.9385     0.0075 C.2     
   5 C5            -2.9926    -2.7618     2.0224 C.ar    
   6 C6            -3.8240    -1.8108     1.4446 C.ar    
   7 C7            -3.5318    -1.3919     0.0275 C.3     
   8 C8            -3.2034    -3.1820     3.3192 C.ar    
   9 C9            -4.2492    -2.6512     4.0514 C.ar    
  10 C10           -5.0766    -1.7076     3.4790 C.ar    
  11 C11           -4.8686    -1.2863     2.1718 C.ar    
  12 C12           -5.8193    -0.2650     1.6043 C.3     
  13 C13           -5.2204     0.3959     0.3644 C.3     
  14 C14           -4.7482    -0.7062    -0.5912 C.3     
  15 O15           -0.9404    -2.1385    -0.0012 O.2     
  16 C16            1.4404    -0.3122    -0.0134 C.2     
  17 N17            2.0391     0.8419    -0.0129 N.2     
  18 O18            1.2592     1.7624    -0.0005 O.3     
  19 C19            2.0830    -1.6752    -0.0264 C.3     
  20 C20           -4.3631    -0.0903    -1.9378 C.3     
  21 H21           -0.8897     2.0049     0.0173 H       
  22 H22           -2.5563     0.4940     0.0291 H       
  23 H23           -2.1772    -3.1789     1.4501 H       
  24 H24           -3.2775    -2.2725    -0.5624 H       
  25 H25           -2.5539    -3.9233     3.7609 H       
  26 H26           -4.4180    -2.9746     5.0680 H       
  27 H27           -5.8930    -1.2931     4.0518 H       
  28 H28           -6.7543    -0.7555     1.3339 H       
  29 H29           -6.0189     0.4976     2.3571 H       
  30 H30           -5.9766     1.0083    -0.1266 H       
  31 H31           -4.3738     1.0188     0.6533 H       
  32 H32           -5.5466    -1.4343    -0.7349 H       
  33 H33            2.2281    -1.9987    -1.0571 H       
  34 H34            3.0479    -1.6269     0.4784 H       
  35 H35            1.4379    -2.3860     0.4901 H       
  36 H36           -3.5583     0.6300    -1.7910 H       
  37 H37           -4.0280    -0.8765    -2.6144 H       
  38 H38           -5.2284     0.4143    -2.3674 H       
@<TRIPOS>BOND
   1    1    2 2
   2    1   18 1
   3    1   21 1
   4    2   16 1
   5    2    4 1
   6    3    4 am
   7    3    7 1
   8    3   22 1
   9    4   15 2
  10    5    6 ar
  11    5    8 ar
  12    5   23 1
  13    6    7 1
  14    6   11 ar
  15    7   14 1
  16    7   24 1
  17    8    9 ar
  18    8   25 1
  19    9   10 ar
  20    9   26 1
  21   10   11 ar
  22   10   27 1
  23   11   12 1
  24   12   13 1
  25   12   28 1
  26   12   29 1
  27   13   14 1
  28   13   30 1
  29   13   31 1
  30   14   20 1
  31   14   32 1
  32   16   17 2
  33   16   19 1
  34   17   18 1
  35   19   33 1
  36   19   34 1
  37   19   35 1
  38   20   36 1
  39   20   37 1
  40   20   38 1

#	End of record

