#	Name: ASD01200364
#	Creating user name:	WinNT
#	Creation time:	15. 06. 2019 19:09

#	Modifying user name:	WinNT
#	Modification time:	15. 06. 2019 19:09

#	Program:	/corina/corina34_cracker 3.40 0067  02.08.2006

@<TRIPOS>MOLECULE
ASD01200364
  62   66    0    0    0
SMALL
NO_CHARGES


@<TRIPOS>ATOM
   1 C1            -0.2991     1.7983    -0.5615 C.ar    
   2 C2            -0.3610     0.4478    -0.7569 C.ar    
   3 C3             0.7990    -0.3094    -0.8669 C.ar    
   4 C4             2.0259     0.2818    -0.7817 C.ar    
   5 C5             2.1157     1.6641    -0.5822 C.ar    
   6 C6             0.9391     2.4297    -0.4710 C.ar    
   7 C7             3.2277     2.5993    -0.4468 C.2     
   8 N8             2.7278     3.7895    -0.2747 N.2     
   9 N9             1.3304     3.7296    -0.2838 N.pl3   
  10 C10            0.4296     4.8731    -0.1188 C.3     
  11 C11            0.6852     5.5320     1.2382 C.3     
  12 C12            0.6805     5.8730    -1.2180 C.2     
  13 N13            0.0588     5.7384    -2.4062 N.am    
  14 O14            1.4418     6.7987    -1.0334 O.2     
  15 C15           -0.3509     6.6328     1.4738 C.3     
  16 C16           -2.7598     7.1062     1.9241 C.3     
  17 C17           -1.7421     6.0064     1.6105 C.3     
  18 C18           -0.0134     7.3865     2.7639 C.3     
  19 C19           -1.0979     8.4330     3.0330 C.3     
  20 O20           -2.3701     7.7876     3.1182 O.3     
  21 C21            0.3679     6.5968    -3.4523 C.ar    
  22 S22            3.4892    -0.6898    -0.9216 S.o2    
  23 O23            4.2622    -0.3245     0.2134 O.2     
  24 O24            3.0131    -2.0184    -1.0869 O.2     
  25 C25            4.2787    -0.1023    -2.4454 C.3     
  26 C26            5.5342    -0.8372    -2.9192 C.3     
  27 C27            4.2140    -1.0149    -3.6717 C.3     
  28 N28            1.3527     7.4701    -3.3176 N.ar    
  29 C29           -0.3627     6.5294    -4.6497 C.ar    
  30 C30           -0.0328     7.4045    -5.6907 C.ar    
  31 C31            1.0029     8.3007    -5.4927 C.ar    
  32 C32            1.6797     8.3033    -4.2861 C.ar    
  33 C33           -1.4576     5.5536    -4.8075 C.2     
  34 O34           -1.6666     4.7286    -3.9392 O.2     
  35 N35           -2.2265     5.5766    -5.9142 N.am    
  36 H36           -1.2083     2.3758    -0.4818 H       
  37 H37           -1.3233    -0.0374    -0.8265 H       
  38 H38            0.7288    -1.3761    -1.0208 H       
  39 H39            4.2777     2.3490    -0.4827 H       
  40 H40           -0.6043     4.5312    -0.1677 H       
  41 H41            0.6055     4.7833     2.0264 H       
  42 H42            1.6851     5.9658     1.2488 H       
  43 H43           -0.6046     5.0418    -2.5303 H       
  44 H44           -0.3431     7.3269     0.6334 H       
  45 H45           -2.7960     7.8147     1.0966 H       
  46 H46           -3.7446     6.6607     2.0648 H       
  47 H47           -2.0135     5.5146     0.6764 H       
  48 H48           -1.7346     5.2757     2.4193 H       
  49 H49            0.0290     6.6837     3.5960 H       
  50 H50            0.9515     7.8817     2.6547 H       
  51 H51           -0.8855     8.9434     3.9724 H       
  52 H52           -1.1123     9.1589     2.2200 H       
  53 H53            4.2310     0.9734    -2.6150 H       
  54 H54            6.3123    -0.2451    -3.4009 H       
  55 H55            5.8858    -1.6737    -2.3153 H       
  56 H56            3.6970    -1.9683    -3.5629 H       
  57 H57            4.1235    -0.5396    -4.6485 H       
  58 H58           -0.5728     7.3808    -6.6257 H       
  59 H59            1.2836     8.9898    -6.2755 H       
  60 H60            2.4905     9.0004    -4.1345 H       
  61 H61           -2.0599     6.2348    -6.6070 H       
  62 H62           -2.9465     4.9350    -6.0180 H       
@<TRIPOS>BOND
   1    1    2 ar
   2    1    6 ar
   3    1   36 1
   4    2    3 ar
   5    2   37 1
   6    3    4 ar
   7    3   38 1
   8    4    5 ar
   9    4   22 1
  10    5    7 1
  11    5    6 ar
  12    6    9 1
  13    7    8 2
  14    7   39 1
  15    8    9 1
  16    9   10 1
  17   10   11 1
  18   10   12 1
  19   10   40 1
  20   11   15 1
  21   11   41 1
  22   11   42 1
  23   12   13 am
  24   12   14 2
  25   13   21 1
  26   13   43 1
  27   15   18 1
  28   15   17 1
  29   15   44 1
  30   16   17 1
  31   16   20 1
  32   16   45 1
  33   16   46 1
  34   17   47 1
  35   17   48 1
  36   18   19 1
  37   18   49 1
  38   18   50 1
  39   19   20 1
  40   19   51 1
  41   19   52 1
  42   21   29 ar
  43   21   28 ar
  44   22   23 2
  45   22   24 2
  46   22   25 1
  47   25   26 1
  48   25   27 1
  49   25   53 1
  50   26   27 1
  51   26   54 1
  52   26   55 1
  53   27   56 1
  54   27   57 1
  55   28   32 ar
  56   29   30 ar
  57   29   33 1
  58   30   31 ar
  59   30   58 1
  60   31   32 ar
  61   31   59 1
  62   32   60 1
  63   33   34 2
  64   33   35 am
  65   35   61 1
  66   35   62 1

#	End of record

