#	Name: ASD01900349
#	Creating user name:	WinNT
#	Creation time:	15. 06. 2019 19:51

#	Modifying user name:	WinNT
#	Modification time:	15. 06. 2019 19:51

#	Program:	/corina/corina34_cracker 3.40 0067  02.08.2006

@<TRIPOS>MOLECULE
ASD01900349
  42   44    0    0    0
SMALL
NO_CHARGES


@<TRIPOS>ATOM
   1 C1            -0.0168     1.3891     0.0097 C.ar    
   2 C2             0.0021    -0.0041     0.0020 C.ar    
   3 C3             1.2224    -0.6606    -0.0132 C.ar    
   4 C4             2.3820     0.0992    -0.0202 C.ar    
   5 C5             2.2884     1.4815    -0.0119 C.ar    
   6 N6             1.1169     2.0792     0.0026 N.ar    
   7 C7            -1.3131     2.1060     0.0197 C.2     
   8 O8            -2.3544     1.4790     0.0212 O.2     
   9 N9            -1.3378     3.4535     0.0271 N.am    
  10 N10           -4.0866     5.7298     0.0525 N.am    
  11 C11           -2.7427     5.4762     0.0448 C.2     
  12 C12           -2.5683     4.1341     0.0367 C.2     
  13 C13           -3.8517     3.5436     0.0395 C.2     
  14 C14           -4.7569     4.5428     0.0492 C.2     
  15 S15           -4.7846     7.2314     0.0702 S.o2    
  16 O16           -5.7678     7.2048     1.0958 O.2     
  17 O17           -3.7181     8.1700     0.0401 O.2     
  18 C18           -5.6559     7.4195    -1.4497 C.ar    
  19 C19           -6.9794     7.0310    -1.5403 C.ar    
  20 C20           -7.6630     7.1785    -2.7327 C.ar    
  21 C21           -7.0232     7.7149    -3.8344 C.ar    
  22 C22           -7.7683     7.8753    -5.1344 C.3     
  23 C23           -5.7001     8.1047    -3.7434 C.ar    
  24 C24           -5.0176     7.9608    -2.5499 C.ar    
  25 C25           -6.2546     4.3758     0.0554 C.3     
  26 H26           -0.9212    -0.5644     0.0082 H       
  27 H27            1.2690    -1.7395    -0.0191 H       
  28 H28            3.3489    -0.3818    -0.0317 H       
  29 H29            3.1898     2.0763    -0.0170 H       
  30 H30           -0.5068     3.9539     0.0259 H       
  31 H31           -1.9574     6.2177     0.0448 H       
  32 H32           -4.0681     2.4856     0.0351 H       
  33 H33           -7.4793     6.6119    -0.6795 H       
  34 H34           -8.6969     6.8743    -2.8036 H       
  35 H35           -8.2446     8.8553    -5.1618 H       
  36 H36           -7.0699     7.7873    -5.9667 H       
  37 H37           -8.5293     7.0991    -5.2152 H       
  38 H38           -5.2003     8.5241    -4.6041 H       
  39 H39           -3.9849     8.2684    -2.4779 H       
  40 H40           -6.6205     4.3412    -0.9707 H       
  41 H41           -6.5146     3.4483     0.5654 H       
  42 H42           -6.7118     5.2173     0.5760 H       
@<TRIPOS>BOND
   1    1    2 ar
   2    1    6 ar
   3    1    7 1
   4    2    3 ar
   5    2   26 1
   6    3    4 ar
   7    3   27 1
   8    4    5 ar
   9    4   28 1
  10    5    6 ar
  11    5   29 1
  12    7    8 2
  13    7    9 am
  14    9   12 1
  15    9   30 1
  16   10   11 1
  17   10   14 1
  18   10   15 am
  19   11   12 2
  20   11   31 1
  21   12   13 1
  22   13   14 2
  23   13   32 1
  24   14   25 1
  25   15   16 2
  26   15   17 2
  27   15   18 1
  28   18   19 ar
  29   18   24 ar
  30   19   20 ar
  31   19   33 1
  32   20   21 ar
  33   20   34 1
  34   21   22 1
  35   21   23 ar
  36   22   35 1
  37   22   36 1
  38   22   37 1
  39   23   24 ar
  40   23   38 1
  41   24   39 1
  42   25   40 1
  43   25   41 1
  44   25   42 1

#	End of record

