#	Name: ASD01913462
#	Creating user name:	WinNT
#	Creation time:	15. 06. 2019 20:01

#	Modifying user name:	WinNT
#	Modification time:	15. 06. 2019 20:01

#	Program:	/corina/corina34_cracker 3.40 0067  02.08.2006

@<TRIPOS>MOLECULE
ASD01913462
  40   42    0    0    0
SMALL
NO_CHARGES


@<TRIPOS>ATOM
   1 C1             0.8717     0.0883    -1.0462 C.ar    
   2 C2             0.0148    -0.0111     0.0451 C.ar    
   3 C3             0.3651     0.6100     1.2356 C.ar    
   4 N4             1.4926     1.2854     1.3354 N.ar    
   5 C5             2.3266     1.3988     0.3201 C.ar    
   6 C6             2.0466     0.8079    -0.8976 C.ar    
   7 C7            -1.0776    -2.0574    -0.1505 C.ar    
   8 C8            -2.2457    -2.8067    -0.1727 C.ar    
   9 C9            -2.1638    -4.1862    -0.2780 C.ar    
  10 C10           -0.9107    -4.7710    -0.3577 C.ar    
  11 C11            0.2186    -3.9619    -0.3298 C.ar    
  12 N12            0.1049    -2.6464    -0.2284 N.ar    
  13 N13            1.4833    -4.5404    -0.4089 N.am    
  14 C14            2.5785    -3.7586    -0.4848 C.2     
  15 O15           -1.1490    -0.7061    -0.0533 O.3     
  16 C16            3.9111    -4.3692    -0.6978 C.ar    
  17 C17            5.0391    -3.5557    -0.7753 C.ar    
  18 C18            6.2795    -4.1418    -0.9744 C.ar    
  19 C19            6.3482    -5.5212    -1.0890 C.ar    
  20 C20            5.1844    -6.2690    -1.0020 C.ar    
  21 N21            4.0211    -5.6876    -0.8077 N.ar    
  22 O22            2.4727    -2.5527    -0.3785 O.2     
  23 C23            5.2540    -7.7692    -1.1265 C.3     
  24 C24            3.6021     2.1831     0.4900 C.3     
  25 H25            0.6294    -0.3876    -1.9850 H       
  26 H26           -0.2930     0.5395     2.0890 H       
  27 H27            2.7356     0.9057    -1.7235 H       
  28 H28           -3.2078    -2.3202    -0.1084 H       
  29 H29           -3.0576    -4.7921    -0.2971 H       
  30 H30           -0.8125    -5.8433    -0.4401 H       
  31 H31            1.5758    -5.5060    -0.4093 H       
  32 H32            4.9486    -2.4835    -0.6820 H       
  33 H33            7.1720    -3.5371    -1.0391 H       
  34 H34            7.2992    -6.0087    -1.2450 H       
  35 H35            5.3972    -8.2094    -0.1397 H       
  36 H36            4.3252    -8.1414    -1.5590 H       
  37 H37            6.0897    -8.0420    -1.7709 H       
  38 H38            4.3944     1.5182     0.8338 H       
  39 H39            3.8872     2.6245    -0.4650 H       
  40 H40            3.4474     2.9739     1.2240 H       
@<TRIPOS>BOND
   1    1    2 ar
   2    1    6 ar
   3    1   25 1
   4    2    3 ar
   5    2   15 1
   6    3    4 ar
   7    3   26 1
   8    4    5 ar
   9    5    6 ar
  10    5   24 1
  11    6   27 1
  12    7    8 ar
  13    7   12 ar
  14    7   15 1
  15    8    9 ar
  16    8   28 1
  17    9   10 ar
  18    9   29 1
  19   10   11 ar
  20   10   30 1
  21   11   12 ar
  22   11   13 1
  23   13   14 am
  24   13   31 1
  25   14   16 1
  26   14   22 2
  27   16   17 ar
  28   16   21 ar
  29   17   18 ar
  30   17   32 1
  31   18   19 ar
  32   18   33 1
  33   19   20 ar
  34   19   34 1
  35   20   21 ar
  36   20   23 1
  37   23   35 1
  38   23   36 1
  39   23   37 1
  40   24   38 1
  41   24   39 1
  42   24   40 1

#	End of record

