#	Name: ASD08150948
#	Creating user name:	WinNT
#	Creation time:	15. 06. 2019 21:16

#	Modifying user name:	WinNT
#	Modification time:	15. 06. 2019 21:16

#	Program:	/corina/corina34_cracker 3.40 0067  02.08.2006

@<TRIPOS>MOLECULE
ASD08150948
  62   67    0    0    0
SMALL
NO_CHARGES


@<TRIPOS>ATOM
   1 N1            -0.0081     1.1338     1.5813 N.2     
   2 C2             0.0137    -0.1263     1.9060 C.2     
   3 N3             1.2977    -0.5290     2.1236 N.pl3   
   4 C4             2.1100     0.5574     1.9178 C.ar    
   5 N5             3.4195     0.7749     1.9785 N.ar    
   6 C6             3.9146     1.9664     1.7171 C.ar    
   7 N7             3.1533     2.9933     1.3865 N.ar    
   8 C8             1.8326     2.8715     1.3003 C.ar    
   9 C9             1.2569     1.6185     1.5699 C.ar    
  10 N10            1.0428     3.9537     0.9536 N.pl3   
  11 C11            1.6610     5.2527     0.6765 C.3     
  12 C12            2.0649     5.3213    -0.7976 C.3     
  13 N13            0.6288     9.8449     1.9885 N.ar    
  14 C14           -0.2241    10.8048     2.2526 C.ar    
  15 C15           -1.6005    10.6041     2.1734 C.ar    
  16 C16           -2.0912     9.3816     1.8126 C.ar    
  17 C17           -1.1718     8.3537     1.5298 C.ar    
  18 C18           -1.6040     7.0713     1.1522 C.ar    
  19 C19           -0.6887     6.0975     0.8845 C.ar    
  20 C20            0.6761     6.3525     0.9791 C.ar    
  21 C21            1.1384     7.5974     1.3464 C.ar    
  22 C22            0.2144     8.6267     1.6301 C.ar    
  23 N23            2.5095     7.8391     1.4378 N.3     
  24 C24            2.9180     8.9077     0.5172 C.3     
  25 C25            4.4420     9.0455     0.5377 C.3     
  26 C26            4.9012     9.3700     1.9620 C.3     
  27 C27            4.4214     8.2661     2.9084 C.3     
  28 C28            2.8980     8.1509     2.8192 C.3     
  29 O29            6.3278     9.4438     1.9987 O.3     
  30 C30            6.8813    10.2028     2.9807 C.ar    
  31 C31            8.2529    10.4086     3.0102 C.ar    
  32 C32            8.8131    11.1805     4.0096 C.ar    
  33 C33            8.0079    11.7478     4.9800 C.ar    
  34 C34            6.6407    11.5439     4.9531 C.ar    
  35 C35            6.0749    10.7779     3.9522 C.ar    
  36 Cl36          -3.3010     6.7275     1.0273 Cl      
  37 H37           -0.8571    -0.7594     1.9908 H       
  38 H38            1.5844    -1.4201     2.3778 H       
  39 H39            4.9835     2.1093     1.7755 H       
  40 H40            0.0800     3.8522     0.8940 H       
  41 H41            2.5454     5.3750     1.3017 H       
  42 H42            2.5248     6.2877    -1.0037 H       
  43 H43            2.7773     4.5258    -1.0164 H       
  44 H44            1.1804     5.1990    -1.4228 H       
  45 H45            0.1500    11.7765     2.5395 H       
  46 H46           -2.2787    11.4142     2.3973 H       
  47 H47           -3.1551     9.2082     1.7464 H       
  48 H48           -1.0275     5.1139     0.5947 H       
  49 H49            2.5891     8.6625    -0.4927 H       
  50 H50            2.4641     9.8485     0.8285 H       
  51 H51            4.8965     8.1094     0.2133 H       
  52 H52            4.7438     9.8492    -0.1339 H       
  53 H53            4.4780    10.3254     2.2723 H       
  54 H54            4.8755     7.3178     2.6213 H       
  55 H55            4.7084     8.5130     3.9306 H       
  56 H56            2.4441     9.0953     3.1197 H       
  57 H57            2.5545     7.3561     3.4813 H       
  58 H58            8.8823     9.9654     2.2527 H       
  59 H59            9.8809    11.3406     4.0332 H       
  60 H60            8.4478    12.3509     5.7604 H       
  61 H61            6.0139    11.9875     5.7125 H       
  62 H62            5.0064    10.6229     3.9289 H       
@<TRIPOS>BOND
   1    1    2 2
   2    1    9 1
   3    2    3 1
   4    2   37 1
   5    3    4 1
   6    3   38 1
   7    4    5 ar
   8    4    9 ar
   9    5    6 ar
  10    6    7 ar
  11    6   39 1
  12    7    8 ar
  13    8    9 ar
  14    8   10 1
  15   10   11 1
  16   10   40 1
  17   11   12 1
  18   11   20 1
  19   11   41 1
  20   12   42 1
  21   12   43 1
  22   12   44 1
  23   13   14 ar
  24   13   22 ar
  25   14   15 ar
  26   14   45 1
  27   15   16 ar
  28   15   46 1
  29   16   17 ar
  30   16   47 1
  31   17   18 ar
  32   17   22 ar
  33   18   19 ar
  34   18   36 1
  35   19   20 ar
  36   19   48 1
  37   20   21 ar
  38   21   22 ar
  39   21   23 1
  40   23   24 1
  41   23   28 1
  42   24   25 1
  43   24   49 1
  44   24   50 1
  45   25   26 1
  46   25   51 1
  47   25   52 1
  48   26   27 1
  49   26   29 1
  50   26   53 1
  51   27   28 1
  52   27   54 1
  53   27   55 1
  54   28   56 1
  55   28   57 1
  56   29   30 1
  57   30   31 ar
  58   30   35 ar
  59   31   32 ar
  60   31   58 1
  61   32   33 ar
  62   32   59 1
  63   33   34 ar
  64   33   60 1
  65   34   35 ar
  66   34   61 1
  67   35   62 1

#	End of record

