#	Name: ASD08150565
#	Creating user name:	WinNT
#	Creation time:	15. 06. 2019 21:16

#	Modifying user name:	WinNT
#	Modification time:	15. 06. 2019 21:16

#	Program:	/corina/corina34_cracker 3.40 0067  02.08.2006

@<TRIPOS>MOLECULE
ASD08150565
  61   66    0    0    0
SMALL
NO_CHARGES


@<TRIPOS>ATOM
   1 N1            -0.3001     0.4624     2.4465 N.am    
   2 C2            -0.6235    -0.8280     2.2347 C.2     
   3 C3             0.3543    -1.8407     2.3082 C.2     
   4 C4             1.6432    -1.5262     2.5955 C.2     
   5 C5             1.9869    -0.1695     2.8190 C.ar    
   6 C6             3.3086     0.2111     3.1198 C.ar    
   7 N7             3.6229     1.4636     3.3251 N.ar    
   8 C8             2.7165     2.4506     3.2624 C.ar    
   9 C9             1.3620     2.1599     2.9656 C.ar    
  10 C10            0.9890     0.8142     2.7381 C.ar    
  11 C11            0.4248     3.1953     2.9039 C.ar    
  12 C12            0.8329     4.4998     3.1348 C.ar    
  13 C13            2.1756     4.7796     3.4276 C.ar    
  14 C14            3.0983     3.7830     3.4911 C.ar    
  15 O15           -1.7777    -1.1241     1.9761 O.2     
  16 C16           -0.1540     5.6038     3.0714 C.ar    
  17 C17           -1.2893     1.4510     2.3619 C.ar    
  18 C18           -1.7019     1.9161     1.1197 C.ar    
  19 C19           -2.6763     2.8898     1.0362 C.ar    
  20 C20           -3.2449     3.4047     2.1947 C.ar    
  21 C21           -2.8326     2.9392     3.4367 C.ar    
  22 C22           -1.8613     1.9617     3.5197 C.ar    
  23 N23           -4.2317     4.3914     2.1103 N.3     
  24 C24           -5.5325     3.8750     2.5585 C.3     
  25 C25           -4.3235     4.9289     0.7457 C.3     
  26 C26           -5.3561     6.0582     0.7135 C.3     
  27 N27           -6.6570     5.5418     1.1617 N.3     
  28 C28           -6.5651     5.0043     2.5263 C.3     
  29 C29           -0.0809     6.6574     3.9834 C.ar    
  30 C30           -0.9970     7.6829     3.9258 C.ar    
  31 C31           -2.0007     7.6689     2.9531 C.ar    
  32 C32           -2.0726     6.6132     2.0399 C.ar    
  33 C33           -1.1520     5.5915     2.0962 C.ar    
  34 C34           -3.4488     3.4978     4.6934 C.3     
  35 F35           -2.5665     3.3197     5.7644 F       
  36 F36           -3.7036     4.8626     4.5210 F       
  37 F37           -4.6484     2.8297     4.9614 F       
  38 C38           -2.9548     8.7351     2.8925 C.1     
  39 N39           -3.7117     9.5808     2.8444 N.1     
  40 H40            0.0770    -2.8702     2.1358 H       
  41 H41            2.3957    -2.2986     2.6533 H       
  42 H42            4.0768    -0.5454     3.1825 H       
  43 H43           -0.6092     2.9806     2.6778 H       
  44 H44            2.4807     5.8004     3.6047 H       
  45 H45            4.1280     4.0164     3.7182 H       
  46 H46           -1.2599     1.5159     0.2192 H       
  47 H47           -2.9966     3.2519     0.0704 H       
  48 H48           -1.5434     1.5970     4.4853 H       
  49 H49           -5.8524     3.0708     1.8960 H       
  50 H50           -5.4416     3.4942     3.5758 H       
  51 H51           -3.3513     5.3165     0.4413 H       
  52 H52           -4.6297     4.1366     0.0625 H       
  53 H53           -5.0363     6.8624     1.3760 H       
  54 H54           -5.4470     6.4390    -0.3038 H       
  55 H55           -7.3691     6.2540     1.1008 H       
  56 H56           -7.5373     4.6167     2.8307 H       
  57 H57           -6.2590     5.7965     3.2095 H       
  58 H58            0.6947     6.6680     4.7349 H       
  59 H59           -0.9407     8.4980     4.6322 H       
  60 H60           -2.8478     6.6011     1.2881 H       
  61 H61           -1.2073     4.7756     1.3907 H       
@<TRIPOS>BOND
   1    1    2 am
   2    1   10 1
   3    1   17 1
   4    2    3 1
   5    2   15 2
   6    3    4 2
   7    3   40 1
   8    4    5 1
   9    4   41 1
  10    5    6 ar
  11    5   10 ar
  12    6    7 ar
  13    6   42 1
  14    7    8 ar
  15    8    9 ar
  16    8   14 ar
  17    9   10 ar
  18    9   11 ar
  19   11   12 ar
  20   11   43 1
  21   12   13 ar
  22   12   16 1
  23   13   14 ar
  24   13   44 1
  25   14   45 1
  26   16   29 ar
  27   16   33 ar
  28   17   18 ar
  29   17   22 ar
  30   18   19 ar
  31   18   46 1
  32   19   20 ar
  33   19   47 1
  34   20   21 ar
  35   20   23 1
  36   21   22 ar
  37   21   34 1
  38   22   48 1
  39   23   24 1
  40   23   25 1
  41   24   28 1
  42   24   49 1
  43   24   50 1
  44   25   26 1
  45   25   51 1
  46   25   52 1
  47   26   27 1
  48   26   53 1
  49   26   54 1
  50   27   28 1
  51   27   55 1
  52   28   56 1
  53   28   57 1
  54   29   30 ar
  55   29   58 1
  56   30   31 ar
  57   30   59 1
  58   31   32 ar
  59   31   38 1
  60   32   33 ar
  61   32   60 1
  62   33   61 1
  63   34   35 1
  64   34   36 1
  65   34   37 1
  66   38   39 3

#	End of record

