#	Name: ASD01918458
#	Creating user name:	WinNT
#	Creation time:	15. 06. 2019 20:11

#	Modifying user name:	WinNT
#	Modification time:	15. 06. 2019 20:11

#	Program:	/corina/corina34_cracker 3.40 0067  02.08.2006

@<TRIPOS>MOLECULE
ASD01918458
  40   43    0    0    0
SMALL
NO_CHARGES


@<TRIPOS>ATOM
   1 F1             0.0021    -0.0041     0.0020 F       
   2 C2            -0.0162     1.3468     0.0094 C.ar    
   3 C3            -1.2250     2.0214     0.0304 C.ar    
   4 C4            -1.2471     3.4030     0.0376 C.ar    
   5 C5            -0.0565     4.1157     0.0243 C.ar    
   6 N6            -0.0771     5.5161     0.0320 N.am    
   7 C7            -0.1117     6.2260    -1.2411 C.3     
   8 C8            -1.0505     7.4335    -1.2127 C.3     
   9 C9            -0.8030     8.2126     0.0526 C.2     
  10 N10           -0.9475     9.5000     0.3221 N.2     
  11 C11           -0.6167     9.7094     1.5739 C.2     
  12 C12           -0.6466    11.0444     2.2724 C.3     
  13 O13           -1.9306    11.2419     2.8676 O.3     
  14 C14           -2.1257    12.4058     3.5416 C.ar    
  15 C15           -1.1043    13.3410     3.6234 C.ar    
  16 C16           -1.3054    14.5235     4.3087 C.ar    
  17 C17           -2.5232    14.7752     4.9132 C.ar    
  18 C18           -3.5426    13.8445     4.8335 C.ar    
  19 C19           -3.3486    12.6632     4.1441 C.ar    
  20 O20           -0.2477     8.5470     2.1348 O.3     
  21 C21           -0.3507     7.6007     1.1969 C.2     
  22 C22           -0.0697     6.1623     1.2205 C.2     
  23 O23            0.1634     5.5773     2.2620 O.2     
  24 C24            1.1574     3.4369     0.0037 C.ar    
  25 F25            2.3184     4.1276    -0.0093 F       
  26 C26            1.1743     2.0544     0.0019 C.ar    
  27 H27           -2.1518     1.4671     0.0407 H       
  28 H28           -2.1908     3.9281     0.0532 H       
  29 H29            0.8950     6.5676    -1.4819 H       
  30 H30           -0.4443     5.5389    -2.0191 H       
  31 H31           -0.8550     8.0685    -2.0767 H       
  32 H32           -2.0854     7.0920    -1.2348 H       
  33 H33            0.1202    11.0665     3.0468 H       
  34 H34           -0.4555    11.8373     1.5492 H       
  35 H35           -0.1527    13.1446     3.1520 H       
  36 H36           -0.5105    15.2519     4.3727 H       
  37 H37           -2.6783    15.7001     5.4488 H       
  38 H38           -4.4928    14.0432     5.3068 H       
  39 H39           -4.1466    11.9384     4.0784 H       
  40 H40            2.1162     1.5261    -0.0100 H       
@<TRIPOS>BOND
   1    1    2 1
   2    2   26 ar
   3    2    3 ar
   4    3    4 ar
   5    3   27 1
   6    4    5 ar
   7    4   28 1
   8    5    6 1
   9    5   24 ar
  10    6   22 am
  11    6    7 1
  12    7    8 1
  13    7   29 1
  14    7   30 1
  15    8    9 1
  16    8   31 1
  17    8   32 1
  18    9   21 2
  19    9   10 1
  20   10   11 2
  21   11   12 1
  22   11   20 1
  23   12   13 1
  24   12   33 1
  25   12   34 1
  26   13   14 1
  27   14   19 ar
  28   14   15 ar
  29   15   16 ar
  30   15   35 1
  31   16   17 ar
  32   16   36 1
  33   17   18 ar
  34   17   37 1
  35   18   19 ar
  36   18   38 1
  37   19   39 1
  38   20   21 1
  39   21   22 1
  40   22   23 2
  41   24   25 1
  42   24   26 ar
  43   26   40 1

#	End of record

