#	Name: ASD06660113
#	Creating user name:	WinNT
#	Creation time:	15. 06. 2019 21:08

#	Modifying user name:	WinNT
#	Modification time:	15. 06. 2019 21:08

#	Program:	/corina/corina34_cracker 3.40 0067  02.08.2006

@<TRIPOS>MOLECULE
ASD06660113
  83   86    0    0    0
SMALL
NO_CHARGES


@<TRIPOS>ATOM
   1 C1             1.4015    -0.3161     1.2038 C.2     
   2 C2             0.8369    -1.7134     1.2105 C.3     
   3 C3            -0.4079    -1.7648     0.3224 C.3     
   4 O4             2.5274    -0.1214     0.8111 O.2     
   5 O5             0.6515     0.7128     1.6288 O.3     
   6 C6            -1.0533    -3.1214     0.4402 C.ar    
   7 C7            -1.9513    -3.3718     1.4615 C.ar    
   8 C8            -2.5447    -4.6140     1.5724 C.ar    
   9 C9            -2.2385    -5.6124     0.6564 C.ar    
  10 C10           -1.3360    -5.3575    -0.3683 C.ar    
  11 C11           -0.7505    -4.1114    -0.4767 C.ar    
  12 N12           -2.8364    -6.8700     0.7659 N.3     
  13 C13           -2.3726    -7.7677    -0.2997 C.3     
  14 C14           -3.1532    -9.0825    -0.2365 C.3     
  15 C15           -2.9389    -9.7324     1.1333 C.3     
  16 C16           -3.3848    -8.7580     2.2271 C.3     
  17 C17           -2.5975    -7.4526     2.0925 C.3     
  18 C18           -3.7652   -11.0167     1.2248 C.3     
  19 N19           -3.4685   -11.6995     2.4866 N.pl3   
  20 C20           -4.1035   -12.8969     2.7950 C.ar    
  21 C21           -5.0199   -13.4416     1.9009 C.ar    
  22 C22           -5.6444   -14.6334     2.2204 C.ar    
  23 C23           -5.3304   -15.2433     3.4280 C.ar    
  24 C24           -4.4115   -14.6470     4.2678 C.ar    
  25 N25           -3.8269   -13.5117     3.9344 N.ar    
  26 C26            2.8660    -3.0345     1.4840 C.2     
  27 C27            3.9302    -3.9065     0.9378 C.ar    
  28 C28            3.8710    -5.2870     1.1350 C.ar    
  29 C29            4.8619    -6.0986     0.6270 C.ar    
  30 C30            5.9246    -5.5403    -0.0852 C.ar    
  31 C31            5.9836    -4.1603    -0.2828 C.ar    
  32 C32            4.9896    -3.3489     0.2209 C.ar    
  33 O33            2.9160    -2.6667     2.6412 O.2     
  34 N34            1.8415    -2.6484     0.6980 N.am    
  35 C35            5.0500    -1.8591     0.0023 C.3     
  36 C36            2.7237    -5.8898     1.9039 C.3     
  37 C37            1.5467    -6.1325     0.9569 C.3     
  38 C38            6.9894    -6.4123    -0.6306 C.2     
  39 N39            8.2846    -6.1168    -0.4033 N.am    
  40 O40            6.6956    -7.3945    -1.2832 O.2     
  41 C41            9.3353    -7.0295    -0.8609 C.3     
  42 C42            8.6418    -4.8831     0.3013 C.3     
  43 H43            0.5679    -1.9917     2.2295 H       
  44 H44           -1.1136    -0.9977     0.6412 H       
  45 H45           -0.1220    -1.5872    -0.7144 H       
  46 H46            1.0569     1.5904     1.6059 H       
  47 H47           -2.1887    -2.5952     2.1735 H       
  48 H48           -3.2457    -4.8090     2.3705 H       
  49 H49           -1.0957    -6.1316    -1.0821 H       
  50 H50           -0.0524    -3.9111    -1.2760 H       
  51 H51           -2.5346    -7.2954    -1.2686 H       
  52 H52           -1.3097    -7.9697    -0.1674 H       
  53 H53           -4.2148    -8.8829    -0.3825 H       
  54 H54           -2.7979    -9.7545    -1.0177 H       
  55 H55           -1.8826    -9.9676     1.2636 H       
  56 H56           -4.4500    -8.5532     2.1199 H       
  57 H57           -3.1950    -9.1982     3.2060 H       
  58 H58           -1.5335    -7.6560     2.2136 H       
  59 H59           -2.9228    -6.7514     2.8610 H       
  60 H60           -4.8262   -10.7697     1.1861 H       
  61 H61           -3.5138   -11.6708     0.3899 H       
  62 H62           -2.8288   -11.3160     3.1068 H       
  63 H63           -5.2409   -12.9402     0.9701 H       
  64 H64           -6.3604   -15.0798     1.5462 H       
  65 H65           -5.8008   -16.1745     3.7074 H       
  66 H66           -4.1645   -15.1178     5.2078 H       
  67 H67            4.8165    -7.1667     0.7801 H       
  68 H68            6.8058    -3.7283    -0.8338 H       
  69 H69            1.7693    -2.9897    -0.2071 H       
  70 H70            5.5985    -1.3936     0.8212 H       
  71 H71            5.5572    -1.6504    -0.9397 H       
  72 H72            4.0380    -1.4557    -0.0328 H       
  73 H73            3.0381    -6.8366     2.3428 H       
  74 H74            2.4179    -5.2060     2.6958 H       
  75 H75            1.2951    -5.2039     0.4447 H       
  76 H76            1.8214    -6.8896     0.2226 H       
  77 H77            0.6851    -6.4768     1.5290 H       
  78 H78            9.6393    -6.7562    -1.8713 H       
  79 H79           10.1932    -6.9603    -0.1921 H       
  80 H80            8.9551    -8.0510    -0.8596 H       
  81 H81            7.7347    -4.3374     0.5611 H       
  82 H82            9.1904    -5.1296     1.2103 H       
  83 H83            9.2660    -4.2642    -0.3433 H       
@<TRIPOS>BOND
   1    1    2 1
   2    1    4 2
   3    1    5 1
   4    2    3 1
   5    2   34 1
   6    2   43 1
   7    3    6 1
   8    3   44 1
   9    3   45 1
  10    5   46 1
  11    6    7 ar
  12    6   11 ar
  13    7    8 ar
  14    7   47 1
  15    8    9 ar
  16    8   48 1
  17    9   10 ar
  18    9   12 1
  19   10   11 ar
  20   10   49 1
  21   11   50 1
  22   12   13 1
  23   12   17 1
  24   13   14 1
  25   13   51 1
  26   13   52 1
  27   14   15 1
  28   14   53 1
  29   14   54 1
  30   15   16 1
  31   15   18 1
  32   15   55 1
  33   16   17 1
  34   16   56 1
  35   16   57 1
  36   17   58 1
  37   17   59 1
  38   18   19 1
  39   18   60 1
  40   18   61 1
  41   19   20 1
  42   19   62 1
  43   20   21 ar
  44   20   25 ar
  45   21   22 ar
  46   21   63 1
  47   22   23 ar
  48   22   64 1
  49   23   24 ar
  50   23   65 1
  51   24   25 ar
  52   24   66 1
  53   26   27 1
  54   26   33 2
  55   26   34 am
  56   27   28 ar
  57   27   32 ar
  58   28   29 ar
  59   28   36 1
  60   29   30 ar
  61   29   67 1
  62   30   31 ar
  63   30   38 1
  64   31   32 ar
  65   31   68 1
  66   32   35 1
  67   34   69 1
  68   35   70 1
  69   35   71 1
  70   35   72 1
  71   36   37 1
  72   36   73 1
  73   36   74 1
  74   37   75 1
  75   37   76 1
  76   37   77 1
  77   38   39 am
  78   38   40 2
  79   39   41 1
  80   39   42 1
  81   41   78 1
  82   41   79 1
  83   41   80 1
  84   42   81 1
  85   42   82 1
  86   42   83 1

#	End of record

