#	Name: ASD07930592
#	Creating user name:	WinNT
#	Creation time:	15. 06. 2019 21:12

#	Modifying user name:	WinNT
#	Modification time:	15. 06. 2019 21:12

#	Program:	/corina/corina34_cracker 3.40 0067  02.08.2006

@<TRIPOS>MOLECULE
ASD07930592
  45   47    0    0    0
SMALL
NO_CHARGES


@<TRIPOS>ATOM
   1 C1             1.3699     0.7538    -1.5454 C.3     
   2 N2             2.3132    -2.0763    -1.4377 N.2     
   3 N3             0.0352    -2.5809    -1.3053 N.pl3   
   4 C4            -0.8997    -2.7420    -0.1868 C.3     
   5 C5            -1.5448    -1.3863     0.1327 C.3     
   6 S6            -0.2172    -0.1883     0.4740 S.o2    
   7 N7             0.8032    -0.3907    -0.8277 N.am    
   8 C8             1.0894    -1.6969    -1.1985 C.2     
   9 C9            -0.1432    -3.2502     1.0422 C.3     
  10 C10           -1.9707    -3.7324    -0.5648 C.ar    
  11 C11           -1.6888    -4.7460    -1.4621 C.ar    
  12 C12           -2.6775    -5.6601    -1.8102 C.ar    
  13 C13           -3.9453    -5.5529    -1.2560 C.ar    
  14 C14           -4.2232    -4.5373    -0.3586 C.ar    
  15 C15           -3.2347    -3.6303    -0.0089 C.ar    
  16 O16           -0.6958     1.1439     0.3493 O.2     
  17 O17            0.5519    -0.5943     1.5977 O.2     
  18 F18           -3.5079    -2.6395     0.8679 F       
  19 N19           -2.3942    -6.6872    -2.7192 N.am    
  20 C20           -3.3900    -7.2499    -3.4321 C.2     
  21 O21           -4.5175    -6.8015    -3.3600 O.2     
  22 C22           -3.1108    -8.4137    -4.3025 C.ar    
  23 C23           -4.1456    -8.9915    -5.0376 C.ar    
  24 C24           -1.5849    -9.9271    -5.1423 C.ar    
  25 N25           -1.8758    -8.8957    -4.3813 N.ar    
  26 C26           -3.8679   -10.0817    -5.8494 C.ar    
  27 C27           -2.5656   -10.5553    -5.8974 C.ar    
  28 Cl28          -2.1643   -11.9167    -6.8970 Cl      
  29 F29           -0.4540    -4.8480    -2.0005 F       
  30 F30           -5.4572    -4.4324     0.1812 F       
  31 Cl31          -5.7581    -8.3561    -4.9378 Cl      
  32 H32            2.3190     1.0351    -1.0892 H       
  33 H33            1.5342     0.4834    -2.5885 H       
  34 H34            0.6781     1.5945    -1.4926 H       
  35 H35            3.0422    -1.4414    -1.3575 H       
  36 H36           -0.0849    -3.0979    -2.1172 H       
  37 H37           -2.1335    -1.0493    -0.7205 H       
  38 H38           -2.1871    -1.4823     1.0081 H       
  39 H39            0.6916    -2.5830     1.2566 H       
  40 H40           -0.8170    -3.2757     1.8987 H       
  41 H41            0.2345    -4.2538     0.8471 H       
  42 H42           -4.7145    -6.2615    -1.5254 H       
  43 H43           -1.4812    -6.9935    -2.8358 H       
  44 H44           -0.5687   -10.2906    -5.1808 H       
  45 H45           -4.6482   -10.5508    -6.4304 H       
@<TRIPOS>BOND
   1    1    7 1
   2    1   32 1
   3    1   33 1
   4    1   34 1
   5    2    8 2
   6    2   35 1
   7    3    4 1
   8    3    8 1
   9    3   36 1
  10    4    5 1
  11    4    9 1
  12    4   10 1
  13    5    6 1
  14    5   37 1
  15    5   38 1
  16    6    7 am
  17    6   16 2
  18    6   17 2
  19    7    8 1
  20    9   39 1
  21    9   40 1
  22    9   41 1
  23   10   11 ar
  24   10   15 ar
  25   11   12 ar
  26   11   29 1
  27   12   13 ar
  28   12   19 1
  29   13   14 ar
  30   13   42 1
  31   14   15 ar
  32   14   30 1
  33   15   18 1
  34   19   20 am
  35   19   43 1
  36   20   21 2
  37   20   22 1
  38   22   23 ar
  39   22   25 ar
  40   23   26 ar
  41   23   31 1
  42   24   25 ar
  43   24   27 ar
  44   24   44 1
  45   26   27 ar
  46   26   45 1
  47   27   28 1

#	End of record

