#	Name: ASD02670019
#	Creating user name:	WinNT
#	Creation time:	15. 06. 2019 20:26

#	Modifying user name:	WinNT
#	Modification time:	15. 06. 2019 20:26

#	Program:	/corina/corina34_cracker 3.40 0067  02.08.2006

@<TRIPOS>MOLECULE
ASD02670019
  43   46    0    0    0
SMALL
NO_CHARGES


@<TRIPOS>ATOM
   1 C1             0.0387     1.4921    -0.0268 C.3     
   2 C2            -1.2190    -4.3382     0.8916 C.ar    
   3 C3            -0.0326    -4.2499     0.1379 C.ar    
   4 C4            -1.7273    -5.5964     1.2409 C.ar    
   5 C5             0.6204    -5.4164    -0.2506 C.ar    
   6 C6            -1.0693    -6.7275     0.8485 C.ar    
   7 C7             0.1028    -6.6417     0.1039 C.ar    
   8 N8             0.2313    -2.9140    -0.0579 N.pl3   
   9 C9            -0.7592    -2.1707     0.5540 C.2     
  10 C10           -1.6490    -3.0126     1.1420 C.2     
  11 C11           -0.8352    -0.7022     0.5718 C.2     
  12 O12           -1.7550    -0.1476     1.1429 O.2     
  13 N13            0.1144     0.0292    -0.0445 N.am    
  14 C14            1.4427     2.1159    -0.1746 C.3     
  15 C15            1.2344     3.3704    -0.9957 C.ar    
  16 C16            0.0082     3.3146    -1.6311 C.ar    
  17 C17           -0.6914     2.0189    -1.2805 C.3     
  18 C18            2.0529     4.4736    -1.1725 C.ar    
  19 C19            1.6475     5.5173    -1.9809 C.ar    
  20 C20            0.4210     5.4616    -2.6165 C.ar    
  21 C21           -0.3960     4.3618    -2.4424 C.ar    
  22 C22           -0.5620     1.0178    -2.4302 C.3     
  23 C23           -1.4246     1.4626    -3.5831 C.2     
  24 O24           -2.0759     2.4764    -3.4943 O.2     
  25 O25           -1.4692     0.7326    -4.7086 O.3     
  26 F26           -1.5607    -7.9396     1.1868 F       
  27 H27           -0.4470     1.8423     0.8840 H       
  28 H28           -2.6364    -5.6718     1.8191 H       
  29 H29            1.5307    -5.3601    -0.8291 H       
  30 H30            0.6113    -7.5451    -0.1991 H       
  31 H31            0.9886    -2.5533    -0.5451 H       
  32 H32           -2.5300    -2.7228     1.6954 H       
  33 H33            0.8478    -0.4131    -0.4999 H       
  34 H34            1.8495     2.3681     0.8047 H       
  35 H35            2.1089     1.4288    -0.6962 H       
  36 H36           -1.7418     2.2049    -1.0563 H       
  37 H37            3.0111     4.5178    -0.6763 H       
  38 H38            2.2878     6.3765    -2.1161 H       
  39 H39            0.1023     6.2770    -3.2488 H       
  40 H40           -1.3540     4.3190    -2.9392 H       
  41 H41            0.4779     0.9673    -2.7528 H       
  42 H42           -0.8860     0.0332    -2.0928 H       
  43 H43           -2.0367     1.0580    -5.4208 H       
@<TRIPOS>BOND
   1    1   13 1
   2    1   14 1
   3    1   17 1
   4    1   27 1
   5    2    3 ar
   6    2    4 ar
   7    2   10 1
   8    3    5 ar
   9    3    8 1
  10    4    6 ar
  11    4   28 1
  12    5    7 ar
  13    5   29 1
  14    6    7 ar
  15    6   26 1
  16    7   30 1
  17    8    9 1
  18    8   31 1
  19    9   10 2
  20    9   11 1
  21   10   32 1
  22   11   12 2
  23   11   13 am
  24   13   33 1
  25   14   15 1
  26   14   34 1
  27   14   35 1
  28   15   16 ar
  29   15   18 ar
  30   16   17 1
  31   16   21 ar
  32   17   22 1
  33   17   36 1
  34   18   19 ar
  35   18   37 1
  36   19   20 ar
  37   19   38 1
  38   20   21 ar
  39   20   39 1
  40   21   40 1
  41   22   23 1
  42   22   41 1
  43   22   42 1
  44   23   24 2
  45   23   25 1
  46   25   43 1

#	End of record

