#	Name: ASD05790109
#	Creating user name:	WinNT
#	Creation time:	15. 06. 2019 21:03

#	Modifying user name:	WinNT
#	Modification time:	15. 06. 2019 21:03

#	Program:	/corina/corina34_cracker 3.40 0067  02.08.2006

@<TRIPOS>MOLECULE
ASD05790109
 104  111    0    0    0
SMALL
NO_CHARGES


@<TRIPOS>ATOM
   1 C1             1.5632    -1.1209     0.3196 C.3     
   2 C2             1.6943    -2.6456     0.3109 C.3     
   3 C3             2.1483    -3.1202     1.6934 C.3     
   4 C4             3.4323    -2.4001     2.0616 C.2     
   5 C5             3.4603    -0.8947     1.9369 C.3     
   6 C6             2.9376    -0.4937     0.5541 C.3     
   7 C7             4.4440    -3.1194     2.4611 C.2     
   8 C8             5.7734    -2.5412     2.8866 C.3     
   9 C9             5.5028    -1.1146     3.3425 C.3     
  10 C10            4.8697    -0.3893     2.1217 C.3     
  11 C11            6.7512    -0.2581     3.5672 C.3     
  12 C12            6.2127     1.1661     3.4105 C.2     
  13 C13            5.0227     1.0904     2.4719 C.3     
  14 C14            2.5654    -0.2799     3.0150 C.3     
  15 N15            0.3976    -3.2464    -0.0112 N.am    
  16 C16            0.3425    -4.4747    -0.5633 C.2     
  17 O17            1.3684    -5.0838    -0.7937 O.2     
  18 C18            7.2561    -0.3702     5.0078 C.3     
  19 C19            8.3362     0.6920     5.2149 C.3     
  20 C20            7.7964     2.1010     5.0367 C.3     
  21 C21            6.6833     2.1981     4.0387 C.2     
  22 C22            8.9553     3.0334     4.5917 C.3     
  23 C23            9.0149     4.0693     5.7161 C.3     
  24 C24            8.4502     3.2333     6.9009 C.3     
  25 O25            7.3251     2.5926     6.3197 O.3     
  26 N26           10.3398     4.5038     6.1376 N.am    
  27 C27           10.3787     5.3425     7.3547 C.3     
  28 C28            9.6280     4.6747     8.5048 C.3     
  29 C29            8.2406     4.1791     8.0610 C.3     
  30 C30            6.0857     3.5517     3.7529 C.3     
  31 C31           10.2703     2.2566     4.5014 C.3     
  32 C32            9.4580     5.6829     9.6430 C.3     
  33 C33           11.4560     4.1635     5.4633 C.2     
  34 O34           11.3896     3.8740     4.2851 O.2     
  35 O35           -0.8492    -5.0269    -0.8593 O.3     
  36 C36           -2.2466    -6.8041    -1.7121 C.ar    
  37 C37           -2.8502    -6.5225    -2.9234 C.ar    
  38 C38           -4.1453    -6.9418    -3.1642 C.ar    
  39 C39           -4.8365    -7.6430    -2.1940 C.ar    
  40 C40           -4.2325    -7.9253    -0.9830 C.ar    
  41 C41           -2.9380    -7.5048    -0.7417 C.ar    
  42 C42           -0.8326    -6.3524    -1.4519 C.3     
  43 O43           12.6447     4.1443     6.0953 O.3     
  44 C44           15.0353     3.8030     6.1755 C.ar    
  45 C45           15.4262     2.6709     6.8658 C.ar    
  46 C46           16.5584     2.7011     7.6583 C.ar    
  47 C47           17.3001     3.8632     7.7601 C.ar    
  48 C48           16.9097     4.9950     7.0691 C.ar    
  49 C49           15.7767     4.9653     6.2778 C.ar    
  50 C50           13.8045     3.7684     5.3067 C.3     
  51 H51            1.1690    -0.7846    -0.6394 H       
  52 H52            0.8849    -0.8190     1.1176 H       
  53 H53            2.4301    -2.9436    -0.4360 H       
  54 H54            1.3774    -2.8915     2.4294 H       
  55 H55            2.3262    -4.1953     1.6703 H       
  56 H56            3.6309    -0.8433    -0.2109 H       
  57 H57            2.8549     0.5917     0.4985 H       
  58 H58            4.3246    -4.1924     2.4891 H       
  59 H59            6.1872    -3.1237     3.7097 H       
  60 H60            6.4658    -2.5389     2.0448 H       
  61 H61            4.8374    -1.0969     4.2056 H       
  62 H62            5.4543    -0.6036     1.2270 H       
  63 H63            7.5285    -0.4800     2.8361 H       
  64 H64            5.2157     1.6729     1.5711 H       
  65 H65            4.1249     1.4542     2.9716 H       
  66 H66            3.0003    -0.4649     3.9972 H       
  67 H67            2.4838     0.7945     2.8503 H       
  68 H68            1.5745    -0.7314     2.9656 H       
  69 H69           -0.4214    -2.7602     0.1727 H       
  70 H70            6.4328    -0.1982     5.7011 H       
  71 H71            7.6777    -1.3615     5.1743 H       
  72 H72            8.7414     0.5930     6.2219 H       
  73 H73            9.1378     0.5266     4.4950 H       
  74 H74            8.7222     3.5106     3.6399 H       
  75 H75            8.3711     4.9205     5.4947 H       
  76 H76            9.1837     2.4804     7.1894 H       
  77 H77           11.4167     5.4993     7.6481 H       
  78 H78            9.9190     6.3070     7.1394 H       
  79 H79           10.2103     3.8269     8.8657 H       
  80 H80            7.6289     5.0239     7.7446 H       
  81 H81            7.7536     3.6549     8.8833 H       
  82 H82            6.6278     4.0224     2.9328 H       
  83 H83            5.0379     3.4352     3.4763 H       
  84 H84            6.1592     4.1765     4.6430 H       
  85 H85           10.0839     1.2018     4.7033 H       
  86 H86           10.6893     2.3666     3.5012 H       
  87 H87           10.9747     2.6480     5.2354 H       
  88 H88            8.8915     6.5427     9.2853 H       
  89 H89            8.9226     5.2128    10.4679 H       
  90 H90           10.4388     6.0115     9.9868 H       
  91 H91           -2.3102    -5.9747    -3.6814 H       
  92 H92           -4.6171    -6.7212    -4.1103 H       
  93 H93           -5.8485    -7.9699    -2.3819 H       
  94 H94           -4.7728    -8.4725    -0.2247 H       
  95 H95           -2.4664    -7.7248     0.2047 H       
  96 H96           -0.2817    -6.3232    -2.3919 H       
  97 H97           -0.3483    -7.0499    -0.7684 H       
  98 H98           14.8468     1.7630     6.7863 H       
  99 H99           16.8634     1.8168     8.1981 H       
 100 H100          18.1843     3.8869     8.3798 H       
 101 H101          17.4888     5.9031     7.1493 H       
 102 H102          15.4713     5.8498     5.7385 H       
 103 H103          13.6656     2.7614     4.9134 H       
 104 H104          13.9238     4.4682     4.4796 H       
@<TRIPOS>BOND
   1    1    2 1
   2    1    6 1
   3    1   51 1
   4    1   52 1
   5    2    3 1
   6    2   15 1
   7    2   53 1
   8    3    4 1
   9    3   54 1
  10    3   55 1
  11    4    5 1
  12    4    7 2
  13    5    6 1
  14    5   14 1
  15    5   10 1
  16    6   56 1
  17    6   57 1
  18    7    8 1
  19    7   58 1
  20    8    9 1
  21    8   59 1
  22    8   60 1
  23    9   10 1
  24    9   11 1
  25    9   61 1
  26   10   13 1
  27   10   62 1
  28   11   12 1
  29   11   18 1
  30   11   63 1
  31   12   13 1
  32   12   21 2
  33   13   64 1
  34   13   65 1
  35   14   66 1
  36   14   67 1
  37   14   68 1
  38   15   16 am
  39   15   69 1
  40   16   17 2
  41   16   35 1
  42   18   19 1
  43   18   70 1
  44   18   71 1
  45   19   20 1
  46   19   72 1
  47   19   73 1
  48   20   21 1
  49   20   25 1
  50   20   22 1
  51   21   30 1
  52   22   23 1
  53   22   31 1
  54   22   74 1
  55   23   24 1
  56   23   26 1
  57   23   75 1
  58   24   25 1
  59   24   29 1
  60   24   76 1
  61   26   27 1
  62   26   33 am
  63   27   28 1
  64   27   77 1
  65   27   78 1
  66   28   29 1
  67   28   32 1
  68   28   79 1
  69   29   80 1
  70   29   81 1
  71   30   82 1
  72   30   83 1
  73   30   84 1
  74   31   85 1
  75   31   86 1
  76   31   87 1
  77   32   88 1
  78   32   89 1
  79   32   90 1
  80   33   34 2
  81   33   43 1
  82   35   42 1
  83   36   37 ar
  84   36   41 ar
  85   36   42 1
  86   37   38 ar
  87   37   91 1
  88   38   39 ar
  89   38   92 1
  90   39   40 ar
  91   39   93 1
  92   40   41 ar
  93   40   94 1
  94   41   95 1
  95   42   96 1
  96   42   97 1
  97   43   50 1
  98   44   45 ar
  99   44   49 ar
 100   44   50 1
 101   45   46 ar
 102   45   98 1
 103   46   47 ar
 104   46   99 1
 105   47   48 ar
 106   47  100 1
 107   48   49 ar
 108   48  101 1
 109   49  102 1
 110   50  103 1
 111   50  104 1

#	End of record

