#	Name: ASD01350020
#	Creating user name:	WinNT
#	Creation time:	15. 06. 2019 19:16

#	Modifying user name:	WinNT
#	Modification time:	15. 06. 2019 19:16

#	Program:	/corina/corina34_cracker 3.40 0067  02.08.2006

@<TRIPOS>MOLECULE
ASD01350020
  57   60    0    0    0
SMALL
NO_CHARGES


@<TRIPOS>ATOM
   1 C1            -0.0288     1.4965     0.0084 C.3     
   2 C2             0.0029    -0.0114     0.0065 C.3     
   3 C3             0.3521    -0.6195     1.3207 C.ar    
   4 C4             0.2964     0.1563     2.4742 C.ar    
   5 N5             0.0136     1.5195     2.3789 N.3     
   6 C6             1.2521     2.2808     2.5087 C.3     
   7 C7             1.8907     2.5691     1.1893 C.ar    
   8 C8             1.3202     2.1463    -0.0093 C.ar    
   9 C9             0.7214    -1.9487     1.4100 C.ar    
  10 C10            0.9988    -2.5130     2.6406 C.ar    
  11 C11            0.9049    -1.7523     3.7919 C.ar    
  12 C12            0.5541    -0.4191     3.7110 C.ar    
  13 C13            3.0870     3.2684     1.1512 C.ar    
  14 C14            3.7275     3.5051    -0.0471 C.ar    
  15 C15            3.1812     3.0386    -1.2285 C.ar    
  16 C16            1.9794     2.3584    -1.2037 C.ar    
  17 C17           -0.9638     1.9268     3.3971 C.3     
  18 C18           -2.3052     1.2461     3.1174 C.3     
  19 C19           -3.2880     1.5738     4.2434 C.3     
  20 N20           -4.5759     0.9203     3.9749 N.3     
  21 C21           -5.4664     1.0128     5.1402 C.3     
  22 C22           -6.8219     0.3922     4.7936 C.3     
  23 N23           -6.6283    -1.0082     4.3921 N.3     
  24 C24           -5.7377    -1.1006     3.2268 C.3     
  25 C25           -4.3823    -0.4800     3.5734 C.3     
  26 C26           -7.9162    -1.6617     4.1236 C.3     
  27 H27           -0.5850     1.8314    -0.8672 H       
  28 H28           -0.5610     1.8297     0.8993 H       
  29 H29           -0.9786    -0.3779    -0.2946 H       
  30 H30            0.7331    -0.3413    -0.7325 H       
  31 H31            1.0345     3.2248     3.0083 H       
  32 H32            1.9519     1.7131     3.1220 H       
  33 H33            0.7930    -2.5485     0.5147 H       
  34 H34            1.2894    -3.5512     2.7035 H       
  35 H35            1.1065    -2.2006     4.7536 H       
  36 H36            0.4796     0.1754     4.6095 H       
  37 H37            3.5222     3.6322     2.0702 H       
  38 H38            4.6565     4.0557    -0.0627 H       
  39 H39            3.6919     3.2045    -2.1656 H       
  40 H40            1.5521     1.9907    -2.1249 H       
  41 H41           -0.6054     1.6320     4.3833 H       
  42 H42           -1.0919     3.0088     3.3655 H       
  43 H43           -2.7051     1.6068     2.1697 H       
  44 H44           -2.1609     0.1671     3.0638 H       
  45 H45           -2.8881     1.2132     5.1911 H       
  46 H46           -3.4323     2.6529     4.2970 H       
  47 H47           -5.0244     0.4755     5.9792 H       
  48 H48           -5.6043     2.0597     5.4104 H       
  49 H49           -7.4745     0.4336     5.6656 H       
  50 H50           -7.2762     0.9464     3.9723 H       
  51 H51           -5.5999    -2.1476     2.9566 H       
  52 H52           -6.1798    -0.5633     2.3877 H       
  53 H53           -3.7297    -0.5214     2.7013 H       
  54 H54           -3.9279    -1.0343     4.3947 H       
  55 H55           -8.4300    -1.1353     3.3192 H       
  56 H56           -7.7439    -2.6968     3.8286 H       
  57 H57           -8.5304    -1.6379     5.0238 H       
@<TRIPOS>BOND
   1    1    2 1
   2    1    8 1
   3    1   27 1
   4    1   28 1
   5    2    3 1
   6    2   29 1
   7    2   30 1
   8    3    4 ar
   9    3    9 ar
  10    4    5 1
  11    4   12 ar
  12    5    6 1
  13    5   17 1
  14    6    7 1
  15    6   31 1
  16    6   32 1
  17    7    8 ar
  18    7   13 ar
  19    8   16 ar
  20    9   10 ar
  21    9   33 1
  22   10   11 ar
  23   10   34 1
  24   11   12 ar
  25   11   35 1
  26   12   36 1
  27   13   14 ar
  28   13   37 1
  29   14   15 ar
  30   14   38 1
  31   15   16 ar
  32   15   39 1
  33   16   40 1
  34   17   18 1
  35   17   41 1
  36   17   42 1
  37   18   19 1
  38   18   43 1
  39   18   44 1
  40   19   20 1
  41   19   45 1
  42   19   46 1
  43   20   21 1
  44   20   25 1
  45   21   22 1
  46   21   47 1
  47   21   48 1
  48   22   23 1
  49   22   49 1
  50   22   50 1
  51   23   24 1
  52   23   26 1
  53   24   25 1
  54   24   51 1
  55   24   52 1
  56   25   53 1
  57   25   54 1
  58   26   55 1
  59   26   56 1
  60   26   57 1

#	End of record

