#	Name: ASD06590088
#	Creating user name:	WinNT
#	Creation time:	15. 06. 2019 21:06

#	Modifying user name:	WinNT
#	Modification time:	15. 06. 2019 21:06

#	Program:	/corina/corina34_cracker 3.40 0067  02.08.2006

@<TRIPOS>MOLECULE
ASD06590088
 319  320    0    0    0
SMALL
NO_CHARGES


@<TRIPOS>ATOM
   1 C1            -7.0065    13.5650    11.5574 C.2     
   2 O2            -6.2690    13.5686    10.5947 O.2     
   3 N3            -5.0547    14.2877    12.8053 N.am    
   4 C4            -6.4767    13.9524    12.9140 C.3     
   5 C5            -7.2485    15.1661    13.4354 C.3     
   6 C6           -10.2818    12.5093    10.2041 C.2     
   7 O7           -10.8389    12.5709    11.2796 O.2     
   8 N8            -8.3013    13.2198    11.4131 N.am    
   9 C9            -8.8178    12.8490    10.0933 C.3     
  10 C10          -12.7814    10.8767     8.0946 C.2     
  11 O11          -11.9496    10.5243     7.2853 O.2     
  12 N12          -10.9721    12.1371     9.1079 N.am    
  13 C13          -12.3953    11.8069     9.2156 C.3     
  14 C14          -13.2248    13.0892     9.1229 C.3     
  15 C15          -12.9235    13.9799    10.3299 C.3     
  16 C16          -13.7530    15.2621    10.2371 C.3     
  17 N17          -13.4645    16.1150    11.3928 N.pl3   
  18 C18          -14.0967    17.3285    11.5265 C.2     
  19 N19          -14.9528    17.7202    10.6250 N.2     
  20 N20          -13.8260    18.1289    12.6110 N.pl3   
  21 C21          -15.9009     9.6674     6.6217 C.2     
  22 O22          -16.5723    10.4429     7.2690 O.2     
  23 N23          -14.0510    10.4364     7.9913 N.am    
  24 C24          -14.4263     9.5321     6.9015 C.3     
  25 C25          -14.1141     8.0897     7.3052 C.3     
  26 O26          -14.9402     7.7146     8.4092 O.3     
  27 C27          -18.5888     7.9585     6.3434 C.2     
  28 O28          -17.9171     7.2601     7.0727 O.2     
  29 N29          -16.4737     8.9267     5.6523 N.am    
  30 C30          -17.9242     8.9765     5.4529 C.3     
  31 C31          -18.2490     8.6645     3.9907 C.3     
  32 C32          -17.7050     9.7601     3.1105 C.2     
  33 O33          -17.0484    10.6525     3.5927 O.2     
  34 O34          -17.9500     9.7447     1.7909 O.3     
  35 C35          -21.9032     6.4381     6.6013 C.2     
  36 O36          -22.3222     7.0097     5.6171 O.2     
  37 N37          -19.9298     7.8240     6.3292 N.am    
  38 C38          -20.5759     6.8344     7.1949 C.3     
  39 C39          -20.7980     7.4385     8.5829 C.3     
  40 C40          -19.4497     7.8326     9.1893 C.3     
  41 O41          -21.6269     8.5971     8.4711 O.3     
  42 C42          -24.7770     4.4833     7.7341 C.2     
  43 O43          -24.2958     4.3092     8.8337 O.2     
  44 N44          -22.6246     5.4486     7.1641 N.am    
  45 C45          -23.9570     5.1276     6.6463 C.3     
  46 C46          -23.8266     4.1624     5.4663 C.3     
  47 C47          -23.1018     4.8607     4.3139 C.3     
  48 C48          -22.9714     3.8955     3.1340 C.3     
  49 N49          -22.2774     4.5641     2.0305 N.pl3   
  50 C50          -22.0436     3.8890     0.8559 C.2     
  51 N51          -21.4261     4.4839    -0.1258 N.2     
  52 N52          -22.4611     2.5865     0.7168 N.pl3   
  53 C53          -27.9128     2.6140     7.9220 C.2     
  54 O54          -28.0014     2.5325     6.7152 O.2     
  55 N55          -26.0450     4.1004     7.4851 N.am    
  56 C56          -26.8421     3.4740     8.5426 C.3     
  57 C57          -27.4939     4.5599     9.4010 C.3     
  58 C58          -26.4081     5.3544    10.1294 C.3     
  59 C59          -27.0501     6.4240    10.9749 C.2     
  60 O60          -28.2573     6.5394    10.9931 O.2     
  61 N61          -26.2828     7.2523    11.7108 N.am    
  62 C62          -30.9640     0.9582     9.0671 C.2     
  63 O63          -30.9194     1.5021    10.1502 O.2     
  64 N64          -28.7721     1.9356     8.7081 N.am    
  65 C65          -29.8129     1.0997     8.1048 C.3     
  66 C66          -29.2381    -0.2830     7.7905 C.3     
  67 C67          -28.1527    -0.1527     6.7200 C.3     
  68 C68          -27.5865    -1.5145     6.4104 C.2     
  69 O69          -28.0095    -2.4929     6.9889 O.2     
  70 N70          -26.6101    -1.6451     5.4906 N.am    
  71 C71          -33.9119    -1.1834     9.3623 C.2     
  72 O72          -33.5473    -1.9048     8.4581 O.2     
  73 N73          -32.0432     0.2272     8.7241 N.am    
  74 C74          -33.1622     0.0897     9.6596 C.3     
  75 C75          -34.1052     1.2846     9.5059 C.3     
  76 C76          -33.3910     2.5449     9.9213 C.ar    
  77 C77          -32.6836     3.2775     8.9861 C.ar    
  78 C78          -32.0276     4.4329     9.3644 C.ar    
  79 C79          -32.0794     4.8582    10.6839 C.ar    
  80 O80          -31.4353     5.9947    11.0585 O.3     
  81 C81          -32.7903     4.1216    11.6203 C.ar    
  82 C82          -33.4489     2.9697    11.2358 C.ar    
  83 C83          -37.1382    -2.6276    10.2940 C.2     
  84 O84          -37.5066    -1.6020    10.8262 O.2     
  85 N85          -34.9874    -1.5203    10.1013 N.am    
  86 C86          -35.7162    -2.7579     9.8123 C.3     
  87 C87          -35.0398    -3.9275    10.5301 C.3     
  88 C88          -33.6387    -4.1387     9.9528 C.3     
  89 C89          -32.9622    -5.3083    10.6705 C.3     
  90 N90          -31.6207    -5.5105    10.1177 N.pl3   
  91 C91          -30.8183    -6.5127    10.6096 C.2     
  92 N92          -29.6247    -6.6925    10.1178 N.2     
  93 N93          -31.2750    -7.3252    11.6203 N.pl3   
  94 C94          -39.9457    -4.8937    10.8821 C.2     
  95 O95          -39.2596    -5.8786    10.7082 O.2     
  96 N96          -38.0006    -3.6508    10.1332 N.am    
  97 C97          -39.3829    -3.5242    10.6015 C.3     
  98 C98          -40.2253    -2.8376     9.5245 C.3     
  99 C99          -39.7313    -1.4029     9.3283 C.3     
 100 C100         -40.5737    -0.7162     8.2513 C.3     
 101 C101         -40.0798     0.7185     8.0551 C.3     
 102 N102         -40.8885     1.3777     7.0211 N.3     
 103 C103         -43.2979    -6.2579    11.4427 C.2     
 104 O104         -43.8376    -5.1757    11.5356 O.2     
 105 N105         -41.2114    -5.0241    11.3265 N.am    
 106 C106         -41.7951    -6.3572    11.4946 C.3     
 107 C107         -41.3684    -6.9340    12.8459 C.3     
 108 C108         -41.9713    -8.3297    13.0180 C.3     
 109 C109         -41.3268    -9.2906    12.0169 C.3     
 110 C110         -41.7106    -8.8259    14.4416 C.3     
 111 C111         -46.0782    -8.6118    11.7464 C.2     
 112 O112         -45.3386    -9.5389    12.0004 O.2     
 113 N113         -44.0421    -7.3715    11.2932 N.am    
 114 C114         -45.5043    -7.2847    11.3216 C.3     
 115 C115         -46.0212    -6.9286     9.9263 C.3     
 116 C116         -45.5398    -5.5269     9.5463 C.3     
 117 C117         -45.9505    -5.2199     8.1048 C.3     
 118 C118         -46.1715    -4.4984    10.4866 C.3     
 119 C119         -48.0987   -10.9586    11.0550 C.2     
 120 O120         -47.7572   -10.5614     9.9611 O.2     
 121 N121         -47.4132    -8.7684    11.8440 N.am    
 122 C122         -47.9711   -10.0586    12.2570 C.3     
 123 C123         -49.3514    -9.8413    12.8802 C.3     
 124 C124         -49.2090    -9.0435    14.1508 C.ar    
 125 C125         -49.2654    -7.6629    14.1100 C.ar    
 126 C126         -49.1347    -6.9311    15.2754 C.ar    
 127 C127         -48.9480    -7.5799    16.4817 C.ar    
 128 C128         -48.8924    -8.9605    16.5226 C.ar    
 129 C129         -49.0274    -9.6925    15.3577 C.ar    
 130 C130         -50.0197   -12.7984     9.3250 C.2     
 131 O131         -50.7683   -11.9537     9.7564 O.2     
 132 N132         -48.5922   -12.2048    11.1956 N.am    
 133 C133         -48.7163   -13.0797    10.0271 C.3     
 134 C134         -48.6853   -14.5412    10.4787 C.3     
 135 O135         -49.8356   -14.8164    11.2808 O.3     
 136 O136         -50.3491   -13.4861     8.2204 O.3     
 137 C137          -4.2514    14.1740    13.8815 C.2     
 138 O138          -4.7057    13.7940    14.9399 O.2     
 139 C139          12.3629    15.4695    22.4533 C.3     
 140 C140          10.8779    15.1193    22.5668 C.3     
 141 C141          10.1984    15.3337    21.2128 C.3     
 142 C142           8.7134    14.9835    21.3263 C.3     
 143 C143           8.0339    15.1979    19.9723 C.3     
 144 C144           6.5489    14.8477    20.0857 C.3     
 145 C145           5.8694    15.0621    18.7318 C.3     
 146 C146           4.3843    14.7119    18.8452 C.3     
 147 C147           3.7049    14.9263    17.4913 C.3     
 148 C148           2.2198    14.5761    17.6047 C.3     
 149 C149           1.5404    14.7905    16.2508 C.3     
 150 C150           0.0553    14.4403    16.3642 C.3     
 151 C151          -0.6241    14.6547    15.0103 C.3     
 152 C152          -2.1092    14.3045    15.1237 C.3     
 153 C153          -2.7887    14.5189    13.7698 C.3     
 154 H154          -4.6914    14.5916    11.9589 H       
 155 H155          -6.6015    13.1183    13.6046 H       
 156 H156          -7.1237    16.0002    12.7448 H       
 157 H157          -8.3065    14.9166    13.5162 H       
 158 H158          -6.8653    15.4463    14.4166 H       
 159 H159          -8.8912    13.2169    12.1831 H       
 160 H160          -8.2712    11.9833     9.7193 H       
 161 H161          -8.6898    13.6846     9.4051 H       
 162 H162         -10.5265    12.0879     8.2477 H       
 163 H163         -12.5840    11.3205    10.1726 H       
 164 H164         -12.9702    13.6211     8.2062 H       
 165 H165         -14.2850    12.8362     9.1137 H       
 166 H166         -13.1781    13.4479    11.2466 H       
 167 H167         -11.8633    14.2329    10.3391 H       
 168 H168         -13.4985    15.7941     9.3204 H       
 169 H169         -14.8132    15.0091    10.2279 H       
 170 H170         -12.8275    15.8235    12.0637 H       
 171 H171         -15.3988    18.5764    10.7193 H       
 172 H172         -13.1889    17.8374    13.2819 H       
 173 H173         -14.2721    18.9851    12.7053 H       
 174 H174         -14.7163    10.7182     8.6385 H       
 175 H175         -13.8614     9.7890     6.0054 H       
 176 H176         -14.3099     7.4262     6.4629 H       
 177 H177         -13.0656     8.0119     7.5930 H       
 178 H178         -14.7958     6.8100     8.7190 H       
 179 H179         -15.9255     8.3607     5.0866 H       
 180 H180         -18.2913     9.9721     5.7023 H       
 181 H181         -17.7931     7.7145     3.7120 H       
 182 H182         -19.3297     8.5998     3.8644 H       
 183 H183         -17.5802    10.4687     1.2672 H       
 184 H184         -20.4671     8.3825     5.7459 H       
 185 H185         -19.9385     5.9543     7.2794 H       
 186 H186         -21.2845     6.7043     9.2251 H       
 187 H187         -19.0096     8.6393     8.6031 H       
 188 H188         -19.5971     8.1680    10.2158 H       
 189 H189         -18.7818     6.9712     9.1808 H       
 190 H190         -22.4996     8.4214     8.0934 H       
 191 H191         -22.2617     4.9488     7.9121 H       
 192 H192         -24.4480     6.0426     6.3148 H       
 193 H193         -23.2576     3.2856     5.7753 H       
 194 H194         -24.8191     3.8542     5.1377 H       
 195 H195         -23.6708     5.7375     4.0049 H       
 196 H196         -22.1093     5.1689     4.6426 H       
 197 H197         -22.4024     3.0187     3.4429 H       
 198 H198         -23.9640     3.5873     2.8053 H       
 199 H199         -21.9829     5.4831     2.1287 H       
 200 H200         -21.2611     4.0076    -0.9546 H       
 201 H201         -22.9206     2.1439     1.4474 H       
 202 H202         -22.2961     2.1103    -0.1120 H       
 203 H203         -26.4297     4.2396     6.6056 H       
 204 H204         -26.1964     2.8562     9.1668 H       
 205 H205         -28.0690     5.2310     8.7630 H       
 206 H206         -28.1568     4.0963    10.1316 H       
 207 H207         -25.8331     4.6833    10.7674 H       
 208 H208         -25.7452     5.8179     9.3988 H       
 209 H209         -25.3173     7.1600    11.6963 H       
 210 H210         -26.6961     7.9408    12.2550 H       
 211 H211         -28.7013     2.0009     9.6733 H       
 212 H212         -30.1643     1.5650     7.1839 H       
 213 H213         -28.8067    -0.7114     8.6951 H       
 214 H214         -30.0333    -0.9324     7.4244 H       
 215 H215         -28.5841     0.2758     5.8154 H       
 216 H216         -27.3575     0.4968     7.0861 H       
 217 H217         -26.2718    -0.8626     5.0279 H       
 218 H218         -26.2457    -2.5217     5.2913 H       
 219 H219         -32.0789    -0.2078     7.8579 H       
 220 H220         -32.7807     0.0568    10.6801 H       
 221 H221         -34.4170     1.3699     8.4649 H       
 222 H222         -34.9820     1.1391    10.1370 H       
 223 H223         -32.6435     2.9459     7.9590 H       
 224 H224         -31.4746     5.0044     8.6337 H       
 225 H225         -31.9745     6.7943    10.9867 H       
 226 H226         -32.8318     4.4505    12.6481 H       
 227 H227         -34.0061     2.3983    11.9634 H       
 228 H228         -35.2790    -0.9434    10.8245 H       
 229 H229         -35.7118    -2.9396     8.7376 H       
 230 H230         -34.9645    -3.7060    11.5947 H       
 231 H231         -35.6313    -4.8320    10.3881 H       
 232 H232         -33.7140    -4.3602     8.8882 H       
 233 H233         -33.0472    -3.2342    10.0947 H       
 234 H234         -32.8870    -5.0868    11.7351 H       
 235 H235         -33.5538    -6.2128    10.5286 H       
 236 H236         -31.2985    -4.9372     9.4047 H       
 237 H237         -29.0587    -7.3996    10.4649 H       
 238 H238         -32.1633    -7.1914    11.9863 H       
 239 H239         -30.7089    -8.0323    11.9674 H       
 240 H240         -37.7059    -4.4711     9.7075 H       
 241 H241         -39.4043    -2.9286    11.5141 H       
 242 H242         -40.1325    -3.3852     8.5866 H       
 243 H243         -41.2701    -2.8229     9.8348 H       
 244 H244         -39.8241    -0.8552    10.2662 H       
 245 H245         -38.6866    -1.4175     9.0179 H       
 246 H246         -40.4809    -1.2639     7.3135 H       
 247 H247         -41.6185    -0.7016     8.5617 H       
 248 H248         -40.1725     1.2661     8.9930 H       
 249 H249         -39.0350     0.7038     7.7448 H       
 250 H250         -41.8695     1.3470     7.2551 H       
 251 H251         -40.5817     2.3274     6.8729 H       
 252 H252         -41.7359    -4.2352    11.5349 H       
 253 H253         -41.4463    -7.0101    10.6944 H       
 254 H254         -40.2811    -7.0005    12.8856 H       
 255 H255         -41.7222    -6.2842    13.6464 H       
 256 H256         -43.0457    -8.2859    12.8395 H       
 257 H257         -40.2636    -9.3858    12.2375 H       
 258 H258         -41.8027   -10.2682    12.0936 H       
 259 H259         -41.4549    -8.9024    11.0065 H       
 260 H260         -42.1698    -8.1413    15.1548 H       
 261 H261         -42.1401    -9.8202    14.5642 H       
 262 H262         -40.6362    -8.8697    14.6201 H       
 263 H263         -43.6096    -8.2305    11.1667 H       
 264 H264         -45.8088    -6.5138    12.0295 H       
 265 H265         -45.6427    -7.6512     9.2032 H       
 266 H266         -47.1110    -6.9510     9.9259 H       
 267 H267         -44.4543    -5.4797     9.6328 H       
 268 H268         -47.0360    -5.2671     8.0184 H       
 269 H269         -45.6075    -4.2213     7.8341 H       
 270 H270         -45.5005    -5.9526     7.4349 H       
 271 H271         -47.2570    -4.5456    10.4002 H       
 272 H272         -45.8789    -4.7171    11.5136 H       
 273 H273         -45.8285    -3.4998    10.2160 H       
 274 H274         -48.0047    -8.0270    11.6408 H       
 275 H275         -47.3105   -10.5223    12.9896 H       
 276 H276         -49.9852    -9.2981    12.1792 H       
 277 H277         -49.8040   -10.8068    13.1063 H       
 278 H278         -49.4113    -7.1560    13.1676 H       
 279 H279         -49.1781    -5.8525    15.2435 H       
 280 H280         -48.8451    -7.0081    17.3921 H       
 281 H281         -48.7462    -9.4674    17.4650 H       
 282 H282         -48.9877   -10.7713    15.3902 H       
 283 H283         -48.8653   -12.5224    12.0705 H       
 284 H284         -47.8878   -12.8929     9.3438 H       
 285 H285         -48.6881   -15.1919     9.6042 H       
 286 H286         -47.7832   -14.7219    11.0631 H       
 287 H287         -49.8818   -15.7270    11.6028 H       
 288 H288         -51.1953   -13.2705     7.8050 H       
 289 H289          12.8470    15.3168    23.4179 H       
 290 H290          12.8313    14.8287    21.7062 H       
 291 H291          12.4685    16.5126    22.1549 H       
 292 H292          10.7723    14.0763    22.8651 H       
 293 H293          10.4095    15.7601    23.3138 H       
 294 H294          10.3040    16.3768    20.9144 H       
 295 H295          10.6668    14.6929    20.4657 H       
 296 H296           8.6078    13.9405    21.6246 H       
 297 H297           8.2450    15.6243    22.0733 H       
 298 H298           8.1395    16.2410    19.6739 H       
 299 H299           8.5023    14.5572    19.2252 H       
 300 H300           6.4433    13.8047    20.3841 H       
 301 H301           6.0805    15.4885    20.8328 H       
 302 H302           5.9749    16.1052    18.4334 H       
 303 H303           6.3378    14.4214    17.9847 H       
 304 H304           4.2788    13.6689    19.1436 H       
 305 H305           3.9160    15.3527    19.5923 H       
 306 H306           3.8104    15.9694    17.1929 H       
 307 H307           4.1732    14.2856    16.7442 H       
 308 H308           2.1143    13.5331    17.9031 H       
 309 H309           1.7515    15.2169    18.3518 H       
 310 H310           1.6459    15.8336    15.9524 H       
 311 H311           2.0087    14.1498    15.5037 H       
 312 H312          -0.0502    13.3973    16.6626 H       
 313 H313          -0.4130    15.0811    17.1113 H       
 314 H314          -0.5186    15.6978    14.7119 H       
 315 H315          -0.1558    14.0140    14.2632 H       
 316 H316          -2.2147    13.2615    15.4221 H       
 317 H317          -2.5776    14.9453    15.8708 H       
 318 H318          -2.3203    13.8782    13.0227 H       
 319 H319          -2.6831    15.5620    13.4714 H       
@<TRIPOS>BOND
   1    1    2 2
   2    1    4 1
   3    1    8 am
   4    3  137 am
   5    3    4 1
   6    3  154 1
   7    4    5 1
   8    4  155 1
   9    5  156 1
  10    5  157 1
  11    5  158 1
  12    6    7 2
  13    6    9 1
  14    6   12 am
  15    8    9 1
  16    8  159 1
  17    9  160 1
  18    9  161 1
  19   10   11 2
  20   10   13 1
  21   10   23 am
  22   12   13 1
  23   12  162 1
  24   13   14 1
  25   13  163 1
  26   14   15 1
  27   14  164 1
  28   14  165 1
  29   15   16 1
  30   15  166 1
  31   15  167 1
  32   16   17 1
  33   16  168 1
  34   16  169 1
  35   17   18 1
  36   17  170 1
  37   18   19 2
  38   18   20 1
  39   19  171 1
  40   20  172 1
  41   20  173 1
  42   21   22 2
  43   21   24 1
  44   21   29 am
  45   23   24 1
  46   23  174 1
  47   24   25 1
  48   24  175 1
  49   25   26 1
  50   25  176 1
  51   25  177 1
  52   26  178 1
  53   27   28 2
  54   27   30 1
  55   27   37 am
  56   29   30 1
  57   29  179 1
  58   30   31 1
  59   30  180 1
  60   31   32 1
  61   31  181 1
  62   31  182 1
  63   32   33 2
  64   32   34 1
  65   34  183 1
  66   35   36 2
  67   35   38 1
  68   35   44 am
  69   37   38 1
  70   37  184 1
  71   38   39 1
  72   38  185 1
  73   39   40 1
  74   39   41 1
  75   39  186 1
  76   40  187 1
  77   40  188 1
  78   40  189 1
  79   41  190 1
  80   42   43 2
  81   42   45 1
  82   42   55 am
  83   44   45 1
  84   44  191 1
  85   45   46 1
  86   45  192 1
  87   46   47 1
  88   46  193 1
  89   46  194 1
  90   47   48 1
  91   47  195 1
  92   47  196 1
  93   48   49 1
  94   48  197 1
  95   48  198 1
  96   49   50 1
  97   49  199 1
  98   50   51 2
  99   50   52 1
 100   51  200 1
 101   52  201 1
 102   52  202 1
 103   53   54 2
 104   53   56 1
 105   53   64 am
 106   55   56 1
 107   55  203 1
 108   56   57 1
 109   56  204 1
 110   57   58 1
 111   57  205 1
 112   57  206 1
 113   58   59 1
 114   58  207 1
 115   58  208 1
 116   59   60 2
 117   59   61 am
 118   61  209 1
 119   61  210 1
 120   62   63 2
 121   62   65 1
 122   62   73 am
 123   64   65 1
 124   64  211 1
 125   65   66 1
 126   65  212 1
 127   66   67 1
 128   66  213 1
 129   66  214 1
 130   67   68 1
 131   67  215 1
 132   67  216 1
 133   68   69 2
 134   68   70 am
 135   70  217 1
 136   70  218 1
 137   71   72 2
 138   71   74 1
 139   71   85 am
 140   73   74 1
 141   73  219 1
 142   74   75 1
 143   74  220 1
 144   75   76 1
 145   75  221 1
 146   75  222 1
 147   76   77 ar
 148   76   82 ar
 149   77   78 ar
 150   77  223 1
 151   78   79 ar
 152   78  224 1
 153   79   80 1
 154   79   81 ar
 155   80  225 1
 156   81   82 ar
 157   81  226 1
 158   82  227 1
 159   83   84 2
 160   83   86 1
 161   83   96 am
 162   85   86 1
 163   85  228 1
 164   86   87 1
 165   86  229 1
 166   87   88 1
 167   87  230 1
 168   87  231 1
 169   88   89 1
 170   88  232 1
 171   88  233 1
 172   89   90 1
 173   89  234 1
 174   89  235 1
 175   90   91 1
 176   90  236 1
 177   91   92 2
 178   91   93 1
 179   92  237 1
 180   93  238 1
 181   93  239 1
 182   94   95 2
 183   94   97 1
 184   94  105 am
 185   96   97 1
 186   96  240 1
 187   97   98 1
 188   97  241 1
 189   98   99 1
 190   98  242 1
 191   98  243 1
 192   99  100 1
 193   99  244 1
 194   99  245 1
 195  100  101 1
 196  100  246 1
 197  100  247 1
 198  101  102 1
 199  101  248 1
 200  101  249 1
 201  102  250 1
 202  102  251 1
 203  103  104 2
 204  103  106 1
 205  103  113 am
 206  105  106 1
 207  105  252 1
 208  106  107 1
 209  106  253 1
 210  107  108 1
 211  107  254 1
 212  107  255 1
 213  108  109 1
 214  108  110 1
 215  108  256 1
 216  109  257 1
 217  109  258 1
 218  109  259 1
 219  110  260 1
 220  110  261 1
 221  110  262 1
 222  111  112 2
 223  111  114 1
 224  111  121 am
 225  113  114 1
 226  113  263 1
 227  114  115 1
 228  114  264 1
 229  115  116 1
 230  115  265 1
 231  115  266 1
 232  116  117 1
 233  116  118 1
 234  116  267 1
 235  117  268 1
 236  117  269 1
 237  117  270 1
 238  118  271 1
 239  118  272 1
 240  118  273 1
 241  119  120 2
 242  119  122 1
 243  119  132 am
 244  121  122 1
 245  121  274 1
 246  122  123 1
 247  122  275 1
 248  123  124 1
 249  123  276 1
 250  123  277 1
 251  124  125 ar
 252  124  129 ar
 253  125  126 ar
 254  125  278 1
 255  126  127 ar
 256  126  279 1
 257  127  128 ar
 258  127  280 1
 259  128  129 ar
 260  128  281 1
 261  129  282 1
 262  130  131 2
 263  130  133 1
 264  130  136 1
 265  132  133 1
 266  132  283 1
 267  133  134 1
 268  133  284 1
 269  134  135 1
 270  134  285 1
 271  134  286 1
 272  135  287 1
 273  136  288 1
 274  137  138 2
 275  137  153 1
 276  139  140 1
 277  139  289 1
 278  139  290 1
 279  139  291 1
 280  140  141 1
 281  140  292 1
 282  140  293 1
 283  141  142 1
 284  141  294 1
 285  141  295 1
 286  142  143 1
 287  142  296 1
 288  142  297 1
 289  143  144 1
 290  143  298 1
 291  143  299 1
 292  144  145 1
 293  144  300 1
 294  144  301 1
 295  145  146 1
 296  145  302 1
 297  145  303 1
 298  146  147 1
 299  146  304 1
 300  146  305 1
 301  147  148 1
 302  147  306 1
 303  147  307 1
 304  148  149 1
 305  148  308 1
 306  148  309 1
 307  149  150 1
 308  149  310 1
 309  149  311 1
 310  150  151 1
 311  150  312 1
 312  150  313 1
 313  151  152 1
 314  151  314 1
 315  151  315 1
 316  152  153 1
 317  152  316 1
 318  152  317 1
 319  153  318 1
 320  153  319 1

#	End of record

