#	Name: ASD01884714
#	Creating user name:	WinNT
#	Creation time:	15. 06. 2019 19:48

#	Modifying user name:	WinNT
#	Modification time:	15. 06. 2019 19:48

#	Program:	/corina/corina34_cracker 3.40 0067  02.08.2006

@<TRIPOS>MOLECULE
ASD01884714
  45   46    0    0    0
SMALL
NO_CHARGES


@<TRIPOS>ATOM
   1 C1            -0.0170     1.4032     0.0098 C.2     
   2 C2             0.0021    -0.0041     0.0020 C.2     
   3 C3             1.1603     2.0882     0.0022 C.2     
   4 C4             2.3749     1.3683    -0.0133 C.2     
   5 C5             2.3525     0.0040    -0.0204 C.2     
   6 N6             1.1737    -0.6666    -0.0127 N.am    
   7 C7             3.6702     2.0924    -0.0222 C.ar    
   8 H8             1.1647     3.1682     0.0076 H       
   9 Cl9           -1.5277     2.2584     0.0216 Cl      
  10 O10           -1.0479    -0.6262     0.0091 O.2     
  11 C11            1.1755    -2.1315    -0.0201 C.3     
  12 C12            1.1896    -2.6488     1.4197 C.3     
  13 C13            2.4937    -4.6840     0.7876 C.3     
  14 C14            1.1915    -4.1788     1.4120 C.3     
  15 C15            4.5180     1.9939    -1.1240 C.ar    
  16 C16            5.7233     2.6678    -1.1309 C.ar    
  17 C17            6.0933     3.4412    -0.0474 C.ar    
  18 C18            5.2540     3.5453     1.0559 C.ar    
  19 C19            4.0391     2.8765     1.0677 C.ar    
  20 C20            1.0799    -4.6962     2.8475 C.3     
  21 N21            5.6318     4.3273     2.1500 N.am    
  22 S22            6.2695     5.8364     1.9082 S.o2    
  23 C23            4.9147     6.7865     1.1649 C.3     
  24 O24            6.5519     6.3113     3.2174 O.2     
  25 O25            7.3105     5.6297     0.9634 O.2     
  26 H26            3.2816    -0.5466    -0.0326 H       
  27 H27            0.2812    -2.4934    -0.5274 H       
  28 H28            2.0611    -2.4911    -0.5441 H       
  29 H29            2.0839    -2.2869     1.9270 H       
  30 H30            0.3040    -2.2892     1.9437 H       
  31 H31            2.5732    -4.3154    -0.2351 H       
  32 H32            3.3405    -4.3226     1.3710 H       
  33 H33            2.4951    -5.7740     0.7821 H       
  34 H34            0.3447    -4.5402     0.8286 H       
  35 H35            4.2324     1.3900    -1.9726 H       
  36 H36            6.3788     2.5897    -1.9856 H       
  37 H37            7.0372     3.9660    -0.0575 H       
  38 H38            3.3853     2.9561     1.9236 H       
  39 H39            1.9267    -4.3347     3.4309 H       
  40 H40            0.1521    -4.3362     3.2924 H       
  41 H41            1.0812    -5.7862     2.8420 H       
  42 H42            5.5206     3.9865     3.0513 H       
  43 H43            4.0672     6.8079     1.8501 H       
  44 H44            5.2498     7.8052     0.9696 H       
  45 H45            4.6131     6.3174     0.2284 H       
@<TRIPOS>BOND
   1    1    2 1
   2    1    3 2
   3    1    9 1
   4    2   10 2
   5    2    6 am
   6    3    4 1
   7    3    8 1
   8    4    5 2
   9    4    7 1
  10    5    6 1
  11    5   26 1
  12    6   11 1
  13    7   15 ar
  14    7   19 ar
  15   11   12 1
  16   11   27 1
  17   11   28 1
  18   12   14 1
  19   12   29 1
  20   12   30 1
  21   13   14 1
  22   13   31 1
  23   13   32 1
  24   13   33 1
  25   14   20 1
  26   14   34 1
  27   15   16 ar
  28   15   35 1
  29   16   17 ar
  30   16   36 1
  31   17   18 ar
  32   17   37 1
  33   18   19 ar
  34   18   21 1
  35   19   38 1
  36   20   39 1
  37   20   40 1
  38   20   41 1
  39   21   22 am
  40   21   42 1
  41   22   23 1
  42   22   24 2
  43   22   25 2
  44   23   43 1
  45   23   44 1
  46   23   45 1

#	End of record

