#	Name: ASD07030062
#	Creating user name:	WinNT
#	Creation time:	15. 06. 2019 21:08

#	Modifying user name:	WinNT
#	Modification time:	15. 06. 2019 21:08

#	Program:	/corina/corina34_cracker 3.40 0067  02.08.2006

@<TRIPOS>MOLECULE
ASD07030062
  49   52    0    0    0
SMALL
NO_CHARGES


@<TRIPOS>ATOM
   1 C1            -0.0167     1.3788     0.0096 C.ar    
   2 C2             0.0021    -0.0041     0.0020 C.ar    
   3 C3            -1.1834    -0.7171     0.0090 C.ar    
   4 C4            -2.3920    -0.0511     0.0237 C.ar    
   5 C5            -2.4168     1.3422     0.0319 C.ar    
   6 C6            -1.2199     2.0551     0.0305 C.ar    
   7 C7            -3.7133     2.0638     0.0471 C.ar    
   8 C8            -4.9104     1.3507     0.0533 C.ar    
   9 C9            -3.7381     3.4569     0.0611 C.ar    
  10 C10           -4.9468     4.1230     0.0752 C.ar    
  11 C11           -6.1322     3.4101     0.0759 C.ar    
  12 C12           -6.1135     2.0270     0.0674 C.ar    
  13 C13           -7.4489     4.1430     0.0923 C.3     
  14 C14           -8.4042     3.9056    -1.0790 C.3     
  15 C15           -8.7174     3.3120     0.2959 C.3     
  16 N16           -7.9677     2.9808    -2.1336 N.3     
  17 C17           -8.6362     3.2809    -3.4068 C.3     
  18 C18           -8.1571     2.2992    -4.4781 C.3     
  19 N19           -8.8257     2.5992    -5.7513 N.3     
  20 C20           -8.3891     1.6744    -6.8059 C.3     
  21 C21           -9.3444     1.4371    -7.9772 C.3     
  22 C22           -8.0759     2.2680    -8.1808 C.3     
  23 C23            1.2788     2.1486     0.0014 C.3     
  24 F24            2.3534     1.2529    -0.0137 F       
  25 F25            1.3320     2.9599    -1.1371 F       
  26 F26            1.3538     2.9476     1.1473 F       
  27 H27            0.9457    -0.5293    -0.0098 H       
  28 H28           -1.1630    -1.7969     0.0027 H       
  29 H29           -3.3169    -0.6087     0.0285 H       
  30 H30           -1.2334     3.1350     0.0372 H       
  31 H31           -4.8969     0.2709     0.0467 H       
  32 H32           -2.8131     4.0144     0.0612 H       
  33 H33           -4.9672     5.2027     0.0860 H       
  34 H34           -7.0419     1.4754     0.0681 H       
  35 H35           -7.4257     5.1417     0.5284 H       
  36 H36           -9.0097     4.7481    -1.4133 H       
  37 H37           -8.5996     2.2353     0.4180 H       
  38 H38           -9.5290     3.7640     0.8662 H       
  39 H39           -6.9643     2.9999    -2.2387 H       
  40 H40           -9.7148     3.1849    -3.2822 H       
  41 H41           -8.3949     4.2988    -3.7128 H       
  42 H42           -7.0785     2.3952    -4.6026 H       
  43 H43           -8.3984     1.2812    -4.1721 H       
  44 H44           -9.8290     2.5801    -5.6461 H       
  45 H45           -7.7839     0.8319    -6.4713 H       
  46 H46           -9.3673     0.4385    -8.4135 H       
  47 H47          -10.2967     1.9672    -7.9653 H       
  48 H48           -8.1938     3.3447    -8.3029 H       
  49 H49           -7.2643     1.8161    -8.7511 H       
@<TRIPOS>BOND
   1    1    2 ar
   2    1   23 1
   3    1    6 ar
   4    2    3 ar
   5    2   27 1
   6    3    4 ar
   7    3   28 1
   8    4    5 ar
   9    4   29 1
  10    5    6 ar
  11    5    7 1
  12    6   30 1
  13    7    8 ar
  14    7    9 ar
  15    8   12 ar
  16    8   31 1
  17    9   10 ar
  18    9   32 1
  19   10   11 ar
  20   10   33 1
  21   11   12 ar
  22   11   13 1
  23   12   34 1
  24   13   14 1
  25   13   15 1
  26   13   35 1
  27   14   15 1
  28   14   16 1
  29   14   36 1
  30   15   37 1
  31   15   38 1
  32   16   17 1
  33   16   39 1
  34   17   18 1
  35   17   40 1
  36   17   41 1
  37   18   19 1
  38   18   42 1
  39   18   43 1
  40   19   20 1
  41   19   44 1
  42   20   21 1
  43   20   22 1
  44   20   45 1
  45   21   22 1
  46   21   46 1
  47   21   47 1
  48   22   48 1
  49   22   49 1
  50   23   24 1
  51   23   25 1
  52   23   26 1

#	End of record

