#	Name: ASD03092341
#	Creating user name:	WinNT
#	Creation time:	15. 06. 2019 20:32

#	Modifying user name:	WinNT
#	Modification time:	15. 06. 2019 20:32

#	Program:	/corina/corina34_cracker 3.40 0067  02.08.2006

@<TRIPOS>MOLECULE
ASD03092341
  61   63    0    0    0
SMALL
NO_CHARGES


@<TRIPOS>ATOM
   1 C1             0.3371     2.0144     0.1473 C.2     
   2 C2             0.5530     0.5252     0.2296 C.3     
   3 C3             2.0536     0.2265     0.2261 C.3     
   4 O4             1.2896     2.7631     0.0914 O.2     
   5 N5            -0.9146     2.5139     0.1302 N.am    
   6 C6            -0.0705    -0.0100     1.5201 C.3     
   7 C7            -0.1047    -0.1528    -0.9740 C.3     
   8 C8            -1.1245     3.9616     0.0502 C.3     
   9 S9            -4.9834     4.7566    -0.6387 S.3     
  10 C10           -4.5798     4.6084     1.0157 C.2     
  11 N11           -3.3134     4.3513     1.1494 N.2     
  12 C12           -2.6026     4.2554     0.0469 C.2     
  13 C13           -3.3091     4.4424    -1.0876 C.2     
  14 C14           -2.5485     5.3138    -4.6606 C.ar    
  15 C15           -3.0708     5.4006    -3.3883 C.ar    
  16 C16           -2.7735     4.3920    -2.4620 C.ar    
  17 C17           -1.9532     3.3345    -2.8772 C.ar    
  18 C18           -1.4749     3.3281    -4.1696 C.ar    
  19 N19           -1.7794     4.2994    -5.0103 N.ar    
  20 C20           -0.5917     2.1969    -4.6294 C.3     
  21 C21           -2.8652     6.3883    -5.6688 C.3     
  22 N22           -5.4737     4.7434     2.0624 N.3     
  23 C23           -6.8268     5.0325     1.5658 C.3     
  24 C24           -7.7693     5.2329     2.7555 C.3     
  25 O25           -7.7346     4.0691     3.5860 O.3     
  26 C26           -6.4318     3.7585     4.0878 C.3     
  27 C27           -5.4758     3.5432     2.9115 C.3     
  28 C28           -6.4996     2.4837     4.9310 C.3     
  29 C29           -9.1949     5.4547     2.2462 C.3     
  30 H30            2.5222     0.7096     1.0835 H       
  31 H31            2.2098    -0.8506     0.2856 H       
  32 H32            2.4978     0.6078    -0.6934 H       
  33 H33           -1.6764     1.9149     0.1709 H       
  34 H34           -1.1395     0.2028     1.5226 H       
  35 H35            0.0857    -1.0871     1.5797 H       
  36 H36            0.3981     0.4730     2.3776 H       
  37 H37            0.3395     0.2285    -1.8935 H       
  38 H38            0.0515    -1.2299    -0.9145 H       
  39 H39           -1.1737     0.0600    -0.9715 H       
  40 H40           -0.6601     4.4441     0.9102 H       
  41 H41           -0.6760     4.3436    -0.8668 H       
  42 H42           -3.6989     6.2336    -3.1092 H       
  43 H43           -1.6994     2.5369    -2.1947 H       
  44 H44           -1.2085     1.4000    -5.0448 H       
  45 H45            0.0956     2.5601    -5.3935 H       
  46 H46           -0.0232     1.8125    -3.7826 H       
  47 H47           -2.1141     7.1759    -5.6083 H       
  48 H48           -2.8615     5.9589    -6.6706 H       
  49 H49           -3.8488     6.8071    -5.4566 H       
  50 H50           -6.8065     5.9390     0.9608 H       
  51 H51           -7.1782     4.1975     0.9597 H       
  52 H52           -7.4487     6.1009     3.3316 H       
  53 H53           -6.0724     4.5837     4.7026 H       
  54 H54           -5.8056     2.6844     2.3270 H       
  55 H55           -4.4693     3.3626     3.2889 H       
  56 H56           -6.8574     1.6590     4.3146 H       
  57 H57           -5.5065     2.2475     5.3131 H       
  58 H58           -7.1834     2.6363     5.7661 H       
  59 H59           -9.5150     4.5853     1.6720 H       
  60 H60           -9.8654     5.5973     3.0937 H       
  61 H61           -9.2199     6.3396     1.6102 H       
@<TRIPOS>BOND
   1    1    2 1
   2    1    4 2
   3    1    5 am
   4    2    3 1
   5    2    6 1
   6    2    7 1
   7    3   30 1
   8    3   31 1
   9    3   32 1
  10    5    8 1
  11    5   33 1
  12    6   34 1
  13    6   35 1
  14    6   36 1
  15    7   37 1
  16    7   38 1
  17    7   39 1
  18    8   12 1
  19    8   40 1
  20    8   41 1
  21    9   10 1
  22    9   13 1
  23   10   11 2
  24   10   22 1
  25   11   12 1
  26   12   13 2
  27   13   16 1
  28   14   15 ar
  29   14   19 ar
  30   14   21 1
  31   15   16 ar
  32   15   42 1
  33   16   17 ar
  34   17   18 ar
  35   17   43 1
  36   18   19 ar
  37   18   20 1
  38   20   44 1
  39   20   45 1
  40   20   46 1
  41   21   47 1
  42   21   48 1
  43   21   49 1
  44   22   23 1
  45   22   27 1
  46   23   24 1
  47   23   50 1
  48   23   51 1
  49   24   25 1
  50   24   29 1
  51   24   52 1
  52   25   26 1
  53   26   27 1
  54   26   28 1
  55   26   53 1
  56   27   54 1
  57   27   55 1
  58   28   56 1
  59   28   57 1
  60   28   58 1
  61   29   59 1
  62   29   60 1
  63   29   61 1

#	End of record

