#	Name: ASD01916027
#	Creating user name:	WinNT
#	Creation time:	15. 06. 2019 20:06

#	Modifying user name:	WinNT
#	Modification time:	15. 06. 2019 20:06

#	Program:	/corina/corina34_cracker 3.40 0067  02.08.2006

@<TRIPOS>MOLECULE
ASD01916027
  45   47    0    0    0
SMALL
NO_CHARGES


@<TRIPOS>ATOM
   1 C1            -0.0196     1.4033    -0.0308 C.ar    
   2 C2            -0.1196     0.2151     0.7105 C.ar    
   3 N3            -1.2588    -0.4479     0.7028 N.ar    
   4 C4            -2.2995    -0.0074     0.0087 C.ar    
   5 C5            -3.5603    -0.7871     0.0309 C.2     
   6 N6            -4.7434    -0.1521     0.1469 N.am    
   7 O7            -3.5269    -1.9987    -0.0554 O.2     
   8 C8             1.1982     2.1565    -0.0523 C.1     
   9 C9             2.1965     2.7739    -0.0699 C.1     
  10 C10            3.4143     3.5271    -0.0914 C.ar    
  11 C11            3.4968     4.7079    -0.8347 C.ar    
  12 C12            5.6939     3.8186     0.6098 C.ar    
  13 C13            4.6729     5.4278    -0.8506 C.ar    
  14 N14           -2.2469     1.1097    -0.7044 N.ar    
  15 C15           -1.1442     1.8299    -0.7552 C.ar    
  16 C16            4.5246     3.0880     0.6354 C.ar    
  17 C17            5.7699     4.9835    -0.1334 C.ar    
  18 C18           -6.0057    -0.8980     0.0528 C.3     
  19 C19           -4.7953     1.2983     0.3758 C.3     
  20 C20           -5.6882     1.9347    -0.6939 C.3     
  21 C21           -7.0558     1.2478    -0.6859 C.3     
  22 C22           -6.8878    -0.2419    -1.0141 C.3     
  23 C23           -6.2212    -0.3912    -2.3831 C.3     
  24 C24           -8.2603    -0.9176    -1.0372 C.3     
  25 H25            0.7237    -0.1500     1.2778 H       
  26 H26            2.6417     5.0555    -1.3955 H       
  27 H27            6.5540     3.4783     1.1673 H       
  28 H28            4.7382     6.3404    -1.4245 H       
  29 H29           -1.1090     2.7387    -1.3377 H       
  30 H30            4.4667     2.1791     1.2158 H       
  31 H31            6.6882     5.5517    -0.1494 H       
  32 H32           -5.7998    -1.9309    -0.2280 H       
  33 H33           -6.5171    -0.8738     1.0151 H       
  34 H34           -5.2101     1.4976     1.3639 H       
  35 H35           -3.7904     1.7150     0.3083 H       
  36 H36           -5.8129     2.9961    -0.4794 H       
  37 H37           -5.2257     1.8130    -1.6734 H       
  38 H38           -7.5070     1.3487     0.3012 H       
  39 H39           -7.7013     1.7153    -1.4295 H       
  40 H40           -5.2429     0.0892    -2.3653 H       
  41 H41           -6.1021    -1.4494    -2.6158 H       
  42 H42           -6.8437     0.0802    -3.1437 H       
  43 H43           -8.8844    -0.4466    -1.7967 H       
  44 H44           -8.1405    -1.9756    -1.2704 H       
  45 H45           -8.7338    -0.8120    -0.0611 H       
@<TRIPOS>BOND
   1    1    2 ar
   2    1    8 1
   3    1   15 ar
   4    2    3 ar
   5    2   25 1
   6    3    4 ar
   7    4   14 ar
   8    4    5 1
   9    5    6 am
  10    5    7 2
  11    6   19 1
  12    6   18 1
  13    8    9 3
  14    9   10 1
  15   10   11 ar
  16   10   16 ar
  17   11   13 ar
  18   11   26 1
  19   12   17 ar
  20   12   16 ar
  21   12   27 1
  22   13   17 ar
  23   13   28 1
  24   14   15 ar
  25   15   29 1
  26   16   30 1
  27   17   31 1
  28   18   22 1
  29   18   32 1
  30   18   33 1
  31   19   20 1
  32   19   34 1
  33   19   35 1
  34   20   21 1
  35   20   36 1
  36   20   37 1
  37   21   22 1
  38   21   38 1
  39   21   39 1
  40   22   23 1
  41   22   24 1
  42   23   40 1
  43   23   41 1
  44   23   42 1
  45   24   43 1
  46   24   44 1
  47   24   45 1

#	End of record

