#	Name: ASD04590301
#	Creating user name:	WinNT
#	Creation time:	15. 06. 2019 20:50

#	Modifying user name:	WinNT
#	Modification time:	15. 06. 2019 20:50

#	Program:	/corina/corina34_cracker 3.40 0067  02.08.2006

@<TRIPOS>MOLECULE
ASD04590301
  47   50    0    0    0
SMALL
NO_CHARGES


@<TRIPOS>ATOM
   1 C1            -0.0167     1.3832     0.0096 C.ar    
   2 C2             0.0021    -0.0041     0.0020 C.ar    
   3 C3             1.1969    -0.6869    -0.0131 C.ar    
   4 C4             2.4020     0.0223    -0.0208 C.ar    
   5 C5             2.3769     1.4283    -0.0131 C.ar    
   6 C6             1.1624     2.0986     0.0022 C.ar    
   7 N7             3.7040    -0.3551    -0.0358 N.2     
   8 C8             4.4709     0.7083    -0.0377 C.2     
   9 N9             3.6969     1.8375    -0.0240 N.pl3   
  10 C10            5.9482     0.6906    -0.0524 C.2     
  11 C11            6.7657    -0.4631    -0.0672 C.2     
  12 C12            8.0579    -0.0539    -0.0777 C.2     
  13 N13            8.0646     1.3050    -0.0698 N.pl3   
  14 N14            6.7360     1.7480    -0.0599 N.2     
  15 N15            6.3188    -1.7944    -0.0701 N.am    
  16 C16            7.2108    -2.8046    -0.0849 C.2     
  17 C17            6.7413    -4.2032    -0.0879 C.ar    
  18 O18            8.4027    -2.5633    -0.0957 O.2     
  19 C19            6.0600    -6.1719    -1.2921 C.ar    
  20 C20            5.8589    -6.8322    -0.0936 C.ar    
  21 C21            6.0899    -6.1871     1.1078 C.ar    
  22 C22            6.5298    -4.8769     1.1199 C.ar    
  23 C23            6.4996    -4.8615    -1.2985 C.ar    
  24 F24            6.6950    -4.2182    -2.4703 F       
  25 F25            6.7552    -4.2487     2.2946 F       
  26 C26           -1.2962    -0.7693     0.0109 C.3     
  27 N27           -1.7318    -1.0105    -1.3712 N.3     
  28 C28           -0.8012    -1.9091    -2.0672 C.3     
  29 C29           -3.1013    -1.5408    -1.4065 C.3     
  30 H30           -0.9614     1.9066     0.0170 H       
  31 H31            1.2037    -1.7669    -0.0186 H       
  32 H32            1.1403     3.1784     0.0079 H       
  33 H33            4.0155     2.7537    -0.0225 H       
  34 H34            8.9276    -0.6941    -0.0897 H       
  35 H35            8.8529     1.8702    -0.0739 H       
  36 H36            5.3681    -1.9869    -0.0615 H       
  37 H37            5.8775    -6.6832    -2.2257 H       
  38 H38            5.5149    -7.8559    -0.0958 H       
  39 H39            5.9300    -6.7101     2.0392 H       
  40 H40           -1.1522    -1.7232     0.5182 H       
  41 H41           -2.0559    -0.1898     0.5354 H       
  42 H42           -0.7573    -2.8637    -1.5430 H       
  43 H43           -1.1474    -2.0708    -3.0881 H       
  44 H44            0.1915    -1.4595    -2.0872 H       
  45 H45           -3.7807    -0.8234    -0.9461 H       
  46 H46           -3.3987    -1.7103    -2.4413 H       
  47 H47           -3.1407    -2.4821    -0.8583 H       
@<TRIPOS>BOND
   1    1    2 ar
   2    1    6 ar
   3    1   30 1
   4    2    3 ar
   5    2   26 1
   6    3    4 ar
   7    3   31 1
   8    4    5 ar
   9    4    7 1
  10    5    6 ar
  11    5    9 1
  12    6   32 1
  13    7    8 2
  14    8    9 1
  15    8   10 1
  16    9   33 1
  17   10   11 1
  18   10   14 2
  19   11   12 2
  20   11   15 1
  21   12   13 1
  22   12   34 1
  23   13   14 1
  24   13   35 1
  25   15   16 am
  26   15   36 1
  27   16   17 1
  28   16   18 2
  29   17   22 ar
  30   17   23 ar
  31   19   20 ar
  32   19   23 ar
  33   19   37 1
  34   20   21 ar
  35   20   38 1
  36   21   22 ar
  37   21   39 1
  38   22   25 1
  39   23   24 1
  40   26   27 1
  41   26   40 1
  42   26   41 1
  43   27   28 1
  44   27   29 1
  45   28   42 1
  46   28   43 1
  47   28   44 1
  48   29   45 1
  49   29   46 1
  50   29   47 1

#	End of record

