#	Name: ASD04640001
#	Creating user name:	WinNT
#	Creation time:	15. 06. 2019 20:52

#	Modifying user name:	WinNT
#	Modification time:	15. 06. 2019 20:52

#	Program:	/corina/corina34_cracker 3.40 0067  02.08.2006

@<TRIPOS>MOLECULE
ASD04640001
  64   68    0    0    0
SMALL
NO_CHARGES


@<TRIPOS>ATOM
   1 C1            -0.0169     1.3920     0.0097 C.ar    
   2 C2             0.0021    -0.0041     0.0020 C.ar    
   3 C3             1.2243    -0.6751    -0.0110 C.ar    
   4 C4             2.4112     0.0371    -0.0156 C.ar    
   5 C5             2.3848     1.4174    -0.0123 C.ar    
   6 C6             1.1708     2.0901     0.0021 C.ar    
   7 C7            -1.2253    -0.7417     0.0079 C.1     
   8 N8            -2.1990    -1.3269     0.0126 N.1     
   9 C9             3.7061    -0.7328    -0.0177 C.3     
  10 N10            4.8159     0.1298    -0.4350 N.3     
  11 C11            4.8403     1.3572     0.3763 C.3     
  12 C12            3.6537     2.2314    -0.0298 C.3     
  13 C13            6.0975    -0.5831    -0.3500 C.3     
  14 C14            6.1168    -1.7212    -1.3723 C.3     
  15 C15            7.4516    -2.4637    -1.2838 C.3     
  16 C16            7.4236    -3.6763    -2.2164 C.3     
  17 C17            8.7584    -4.4188    -2.1278 C.3     
  18 C18            9.8926    -3.4805    -2.5452 C.3     
  19 C19            9.9206    -2.2679    -1.6126 C.3     
  20 C20            8.5858    -1.5254    -1.7012 C.3     
  21 N21           11.1707    -4.1914    -2.4605 N.am    
  22 C22           12.2133    -3.7958    -3.2173 C.2     
  23 C23           13.5281    -4.5272    -3.1301 C.3     
  24 O24           12.0935    -2.8513    -3.9686 O.2     
  25 N25           14.3503    -4.2371    -4.3079 N.pl3   
  26 C26           15.5406    -3.6192    -3.9212 C.ar    
  27 C27           15.6088    -3.4558    -2.5466 C.ar    
  28 C28           14.3450    -4.0149    -1.9326 C.3     
  29 C29           16.6039    -3.1746    -4.7102 C.ar    
  30 C30           17.7029    -2.5826    -4.1259 C.ar    
  31 C31           17.7610    -2.4243    -2.7532 C.ar    
  32 C32           16.7123    -2.8609    -1.9656 C.ar    
  33 H33           -0.9579     1.9219     0.0170 H       
  34 H34            1.2450    -1.7549    -0.0171 H       
  35 H35            1.1571     3.1700     0.0079 H       
  36 H36            3.9018    -1.1103     0.9860 H       
  37 H37            3.6242    -1.5726    -0.7077 H       
  38 H38            4.7609     1.0997     1.4325 H       
  39 H39            5.7706     1.8962     0.1969 H       
  40 H40            3.8191     2.6223    -1.0338 H       
  41 H41            3.5603     3.0623     0.6695 H       
  42 H42            6.9128     0.1089    -0.5611 H       
  43 H43            6.2194    -0.9931     0.6526 H       
  44 H44            5.3015    -2.4131    -1.1612 H       
  45 H45            5.9949    -1.3112    -2.3749 H       
  46 H46            7.6146    -2.7972    -0.2589 H       
  47 H47            6.6156    -4.3447    -1.9190 H       
  48 H48            7.2606    -3.3427    -3.2412 H       
  49 H49            8.9213    -4.7523    -1.1030 H       
  50 H50            8.7384    -5.2826    -2.7923 H       
  51 H51            9.7296    -3.1469    -3.5701 H       
  52 H52           10.0836    -2.6014    -0.5878 H       
  53 H53           10.7286    -1.5995    -1.9100 H       
  54 H54            8.4228    -1.1919    -2.7260 H       
  55 H55            8.6058    -0.6615    -1.0368 H       
  56 H56           11.2665    -4.9469    -1.8596 H       
  57 H57           13.3581    -5.6003    -3.0425 H       
  58 H58           14.1033    -4.4443    -5.2228 H       
  59 H59           13.7989    -3.2317    -1.4068 H       
  60 H60           14.5820    -4.8351    -1.2550 H       
  61 H61           16.5650    -3.2955    -5.7827 H       
  62 H62           18.5217    -2.2415    -4.7420 H       
  63 H63           18.6234    -1.9603    -2.2978 H       
  64 H64           16.7562    -2.7380    -0.8935 H       
@<TRIPOS>BOND
   1    1    2 ar
   2    1    6 ar
   3    1   33 1
   4    2    3 ar
   5    2    7 1
   6    3    4 ar
   7    3   34 1
   8    4    5 ar
   9    4    9 1
  10    5    6 ar
  11    5   12 1
  12    6   35 1
  13    7    8 3
  14    9   10 1
  15    9   36 1
  16    9   37 1
  17   10   11 1
  18   10   13 1
  19   11   12 1
  20   11   38 1
  21   11   39 1
  22   12   40 1
  23   12   41 1
  24   13   14 1
  25   13   42 1
  26   13   43 1
  27   14   15 1
  28   14   44 1
  29   14   45 1
  30   15   16 1
  31   15   20 1
  32   15   46 1
  33   16   17 1
  34   16   47 1
  35   16   48 1
  36   17   18 1
  37   17   49 1
  38   17   50 1
  39   18   19 1
  40   18   21 1
  41   18   51 1
  42   19   20 1
  43   19   52 1
  44   19   53 1
  45   20   54 1
  46   20   55 1
  47   21   22 am
  48   21   56 1
  49   22   23 1
  50   22   24 2
  51   23   25 1
  52   23   28 1
  53   23   57 1
  54   25   26 1
  55   25   58 1
  56   26   27 ar
  57   26   29 ar
  58   27   28 1
  59   27   32 ar
  60   28   59 1
  61   28   60 1
  62   29   30 ar
  63   29   61 1
  64   30   31 ar
  65   30   62 1
  66   31   32 ar
  67   31   63 1
  68   32   64 1

#	End of record

