#	Name: ASD04882364
#	Creating user name:	WinNT
#	Creation time:	15. 06. 2019 20:54

#	Modifying user name:	WinNT
#	Modification time:	15. 06. 2019 20:54

#	Program:	/corina/corina34_cracker 3.40 0067  02.08.2006

@<TRIPOS>MOLECULE
ASD04882364
  74   79    0    0    0
SMALL
NO_CHARGES


@<TRIPOS>ATOM
   1 N1            -0.0576     1.4388     0.0161 N.am    
   2 C2             0.0630     0.0432    -0.0165 C.ar    
   3 C3            -1.0767    -0.7597     0.0819 C.ar    
   4 C4            -0.9586    -2.1446     0.0503 C.ar    
   5 C5             0.2813    -2.7302    -0.0781 C.ar    
   6 C6             1.4251    -1.9331    -0.1770 C.ar    
   7 C7             1.3085    -0.5405    -0.1516 C.ar    
   8 N8            -2.3323    -0.1718     0.2123 N.3     
   9 C9            -3.2109    -0.5536    -0.9021 C.3     
  10 C10           -2.9438    -0.5168     1.5033 C.3     
  11 C11           -4.2833     0.2107     1.6409 C.3     
  12 N12           -5.1619    -0.1710     0.5264 N.3     
  13 C13           -4.5503     0.1739    -0.7646 C.3     
  14 C14            2.7533    -2.5607    -0.3136 C.2     
  15 O15            3.7478    -1.8664    -0.3995 O.2     
  16 C16            0.8777     2.2099    -0.5731 C.2     
  17 C17            0.7063     3.6733    -0.6159 C.2     
  18 O18            1.8632     1.6983    -1.0694 O.2     
  19 C19           -6.4213     0.4186     0.6572 C.ar    
  20 C20           -6.5422     1.8019     0.6895 C.ar    
  21 C21           -7.5564    -0.3771     0.7495 C.ar    
  22 C22           -8.7999     0.2092     0.8788 C.ar    
  23 C23           -8.9162     1.5868     0.9159 C.ar    
  24 C24           -7.7891     2.3818     0.8190 C.ar    
  25 C25            1.5628     4.5718    -1.1741 C.2     
  26 N26           -0.3409     4.3797    -0.1101 N.2     
  27 C27           -0.1356     5.6420    -0.3399 C.2     
  28 O28            1.0264     5.7891    -0.9919 O.3     
  29 C29           -7.4308    -1.8782     0.7081 C.3     
  30 N30            2.8642    -3.9036    -0.3430 N.am    
  31 C31            4.1831    -4.5268    -0.4787 C.3     
  32 C32            4.0439    -6.0458    -0.3605 C.3     
  33 C33            3.2552    -6.7135    -1.4575 C.2     
  34 C34           -1.0596     6.7632     0.0601 C.3     
  35 C35           -0.5045     7.8347     1.0007 C.3     
  36 C36           -0.7457     8.1621    -0.4743 C.3     
  37 N37            3.7170    -6.6999    -2.7236 N.am    
  38 C38            5.2231    -6.8193     0.2330 C.3     
  39 C39            3.9389    -6.6384     1.0462 C.3     
  40 O40            2.2050    -7.2632    -1.2009 O.2     
  41 H41           -0.8163     1.8499     0.4592 H       
  42 H42           -1.8410    -2.7625     0.1269 H       
  43 H43            0.3698    -3.8063    -0.1020 H       
  44 H44            2.1905     0.0780    -0.2282 H       
  45 H45           -2.7419    -0.2766    -1.8463 H       
  46 H46           -3.3781    -1.6305    -0.8809 H       
  47 H47           -3.1080    -1.5933     1.5518 H       
  48 H48           -2.2802    -0.2130     2.3128 H       
  49 H49           -4.7523    -0.0663     2.5850 H       
  50 H50           -4.1161     1.2876     1.6197 H       
  51 H51           -4.3862     1.2504    -0.8131 H       
  52 H52           -5.2140    -0.1299    -1.5741 H       
  53 H53           -5.6621     2.4234     0.6139 H       
  54 H54           -9.6827    -0.4088     0.9506 H       
  55 H55           -9.8901     2.0428     1.0164 H       
  56 H56           -7.8834     3.4572     0.8484 H       
  57 H57            2.4962     4.3481    -1.6692 H       
  58 H58           -7.3032    -2.2602     1.7210 H       
  59 H59           -8.3320    -2.3063     0.2691 H       
  60 H60           -6.5662    -2.1540     0.1043 H       
  61 H61            2.0708    -4.4574    -0.2745 H       
  62 H62            4.6055    -4.2752    -1.4515 H       
  63 H63            4.8411    -4.1599     0.3091 H       
  64 H64           -2.1090     6.4905     0.1715 H       
  65 H65           -1.1888     8.2671     1.7307 H       
  66 H66            0.5291     7.7286     1.3302 H       
  67 H67            0.1292     8.2714    -1.1151 H       
  68 H68           -1.5887     8.8099    -0.7147 H       
  69 H69            4.5186    -6.1993    -2.9421 H       
  70 H70            3.2478    -7.1907    -3.4163 H       
  71 H71            5.4282    -7.8112    -0.1697 H       
  72 H72            6.0980    -6.2459     0.5393 H       
  73 H73            3.9693    -5.9461     1.8875 H       
  74 H74            3.2997    -7.5113     1.1782 H       
@<TRIPOS>BOND
   1    1    2 1
   2    1   16 am
   3    1   41 1
   4    2    3 ar
   5    2    7 ar
   6    3    4 ar
   7    3    8 1
   8    4    5 ar
   9    4   42 1
  10    5    6 ar
  11    5   43 1
  12    6    7 ar
  13    6   14 1
  14    7   44 1
  15    8    9 1
  16    8   10 1
  17    9   13 1
  18    9   45 1
  19    9   46 1
  20   10   11 1
  21   10   47 1
  22   10   48 1
  23   11   12 1
  24   11   49 1
  25   11   50 1
  26   12   13 1
  27   12   19 1
  28   13   51 1
  29   13   52 1
  30   14   15 2
  31   14   30 am
  32   16   18 2
  33   16   17 1
  34   17   25 2
  35   17   26 1
  36   19   20 ar
  37   19   21 ar
  38   20   24 ar
  39   20   53 1
  40   21   22 ar
  41   21   29 1
  42   22   23 ar
  43   22   54 1
  44   23   24 ar
  45   23   55 1
  46   24   56 1
  47   25   28 1
  48   25   57 1
  49   26   27 2
  50   27   28 1
  51   27   34 1
  52   29   58 1
  53   29   59 1
  54   29   60 1
  55   30   31 1
  56   30   61 1
  57   31   32 1
  58   31   62 1
  59   31   63 1
  60   32   33 1
  61   32   38 1
  62   32   39 1
  63   33   37 am
  64   33   40 2
  65   34   35 1
  66   34   36 1
  67   34   64 1
  68   35   36 1
  69   35   65 1
  70   35   66 1
  71   36   67 1
  72   36   68 1
  73   37   69 1
  74   37   70 1
  75   38   39 1
  76   38   71 1
  77   38   72 1
  78   39   73 1
  79   39   74 1

#	End of record

