#	Name: ASD01815953
#	Creating user name:	WinNT
#	Creation time:	15. 06. 2019 19:34

#	Modifying user name:	WinNT
#	Modification time:	15. 06. 2019 19:34

#	Program:	/corina/corina34_cracker 3.40 0067  02.08.2006

@<TRIPOS>MOLECULE
ASD01815953
  52   57    0    0    0
SMALL
NO_CHARGES


@<TRIPOS>ATOM
   1 C1             1.1839     2.2595    -0.5287 C.ar    
   2 C2             0.8006     0.9285    -0.5123 C.ar    
   3 C3             1.7393    -0.0725    -0.3553 C.ar    
   4 C4             3.0861     0.2502    -0.2118 C.ar    
   5 C5             3.4719     1.6003    -0.2293 C.ar    
   6 C6             2.5156     2.6012    -0.3880 C.ar    
   7 N7             4.0321    -0.7490    -0.0535 N.pl3   
   8 C8             5.3431    -0.4982     0.0895 C.2     
   9 C9             5.8374     0.7826     0.0880 C.2     
  10 C10            4.9036     1.9201    -0.0758 C.2     
  11 C11            7.1584     1.3899     0.2160 C.2     
  12 N12            6.9689     2.7244     0.1310 N.am    
  13 N13            5.6128     3.0118    -0.0430 N.2     
  14 C14            7.9869     3.6835     0.2062 C.ar    
  15 O15            8.2204     0.8088     0.3695 O.2     
  16 C16            3.5814    -2.1429    -0.0411 C.3     
  17 C17            3.4352    -2.6362    -1.4576 C.ar    
  18 C18            4.5172    -2.5904    -2.3207 C.ar    
  19 C19            4.3847    -3.0433    -3.6214 C.ar    
  20 C20            3.1664    -3.5433    -4.0593 C.ar    
  21 C21            2.0838    -3.5875    -3.1905 C.ar    
  22 C22            2.2225    -3.1391    -1.8916 C.ar    
  23 F23            2.8885     3.8996    -0.4046 F       
  24 F24            1.3501    -1.3662    -0.3404 F       
  25 C25            8.7037     4.0282    -0.9319 C.ar    
  26 C26            9.7070     4.9743    -0.8547 C.ar    
  27 C27            9.9991     5.5790     0.3543 C.ar    
  28 C28            9.2883     5.2394     1.4906 C.ar    
  29 C29            8.2784     4.2970     1.4198 C.ar    
  30 F30            7.5837     3.9649     2.5299 F       
  31 F31            5.7023    -2.1029    -1.8928 F       
  32 N32            3.0286    -4.0025    -5.3763 N.pl3   
  33 N33            3.6523    -3.4789    -6.5203 N.2     
  34 C34            3.2527    -4.1969    -7.5358 C.2     
  35 N35            2.4158    -5.1407    -7.1026 N.2     
  36 C36            2.2727    -5.0423    -5.7982 C.2     
  37 N37            1.4828    -5.8513    -5.0019 N.pl3   
  38 H38            0.4404     3.0324    -0.6563 H       
  39 H39           -0.2423     0.6709    -0.6230 H       
  40 H40            6.0268    -1.3256     0.2092 H       
  41 H41            4.3135    -2.7568     0.4836 H       
  42 H42            2.6198    -2.2094     0.4678 H       
  43 H43            5.2281    -3.0075    -4.2950 H       
  44 H44            1.1347    -3.9758    -3.5293 H       
  45 H45            1.3805    -3.1740    -1.2162 H       
  46 H46            8.4771     3.5566    -1.8767 H       
  47 H47           10.2647     5.2421    -1.7400 H       
  48 H48           10.7845     6.3181     0.4110 H       
  49 H49            9.5191     5.7132     2.4332 H       
  50 H50            3.5522    -4.0495    -8.5629 H       
  51 H51            0.9687    -6.5708    -5.4006 H       
  52 H52            1.4428    -5.6993    -4.0448 H       
@<TRIPOS>BOND
   1    1    2 ar
   2    1    6 ar
   3    1   38 1
   4    2    3 ar
   5    2   39 1
   6    3    4 ar
   7    3   24 1
   8    4    5 ar
   9    4    7 1
  10    5    6 ar
  11    5   10 1
  12    6   23 1
  13    7    8 1
  14    7   16 1
  15    8    9 2
  16    8   40 1
  17    9   10 1
  18    9   11 1
  19   10   13 2
  20   11   12 am
  21   11   15 2
  22   12   13 1
  23   12   14 1
  24   14   25 ar
  25   14   29 ar
  26   16   17 1
  27   16   41 1
  28   16   42 1
  29   17   18 ar
  30   17   22 ar
  31   18   19 ar
  32   18   31 1
  33   19   20 ar
  34   19   43 1
  35   20   21 ar
  36   20   32 1
  37   21   22 ar
  38   21   44 1
  39   22   45 1
  40   25   26 ar
  41   25   46 1
  42   26   27 ar
  43   26   47 1
  44   27   28 ar
  45   27   48 1
  46   28   29 ar
  47   28   49 1
  48   29   30 1
  49   32   33 1
  50   32   36 1
  51   33   34 2
  52   34   35 1
  53   34   50 1
  54   35   36 2
  55   36   37 1
  56   37   51 1
  57   37   52 1

#	End of record

