#	Name: ASD01820152
#	Creating user name:	WinNT
#	Creation time:	15. 06. 2019 19:36

#	Modifying user name:	WinNT
#	Modification time:	15. 06. 2019 19:36

#	Program:	/corina/corina34_cracker 3.40 0067  02.08.2006

@<TRIPOS>MOLECULE
ASD01820152
 132  148    0    0    0
SMALL
NO_CHARGES


@<TRIPOS>ATOM
   1 N1             0.0750     1.3305     0.0570 N.3     
   2 C2             0.1188    -0.0812     0.1240 C.3     
   3 C3             1.1746    -0.8056     0.9482 C.3     
   4 C4             2.3902     0.0688     1.2707 C.3     
   5 N5             3.2480     0.1018     0.0904 N.3     
   6 C6             2.9024     0.6955    -1.1423 C.3     
   7 C7             2.0421     1.9477    -1.2083 C.3     
   8 C8             1.2451     2.2051     0.0764 C.3     
   9 C9             3.3416    -0.6980     2.2311 C.3     
  10 C10            4.0430    -1.6437     1.3354 C.ar    
  11 C11            3.9531    -1.0932     0.0373 C.ar    
  12 C12            4.6952    -2.8359     1.5701 C.ar    
  13 C13            5.2664    -3.4858     0.4824 C.ar    
  14 C14            5.1817    -2.9555    -0.7891 C.ar    
  15 C15            4.5285    -1.7582    -1.0414 C.ar    
  16 C16            2.9848     3.1218    -1.4840 C.3     
  17 C17            2.2170     4.4205    -1.6956 C.3     
  18 C18            1.4431     4.7138    -0.4357 C.3     
  19 C19            0.5209     3.5728    -0.0414 C.3     
  20 C20           -0.6272     3.2776    -0.9230 C.ar    
  21 C21           -0.8683     1.8922    -0.7920 C.ar    
  22 C22           -1.4036     4.0689    -1.7456 C.ar    
  23 C23           -2.4489     3.4593    -2.4285 C.ar    
  24 C24           -2.7021     2.1093    -2.2926 C.ar    
  25 C25           -1.9236     1.2986    -1.4796 C.ar    
  26 C26            0.0841     4.0575     1.3654 C.3     
  27 C27            3.8487     3.2648    -0.2476 C.2     
  28 N28            2.2754     4.9678     0.7476 N.4     
  29 C29            3.4604     4.1349     0.8881 C.3     
  30 C30            1.4162     4.6194     1.9286 C.3     
  31 H31            0.8302     5.5985    -0.6062 H       
  32 H32            1.8655     2.2247     0.9629 H       
  33 H33            1.3413     1.8637    -2.0498 H       
  34 H34            3.6033     2.9160    -2.3556 H       
  35 O35            4.0967     0.8745    -1.9375 O.3     
  36 C36            4.9063     2.4908    -0.2353 C.2     
  37 C37            5.1747     1.5318    -1.3197 C.3     
  38 H38            2.3272    -0.0858    -1.6859 H       
  39 H39            2.1235     1.0063     1.7466 H       
  40 O40           -1.1930    -0.5722     0.4924 O.3     
  41 C41            2.6441    -1.2827     3.4440 C.3     
  42 C42            0.5063    -1.2657     2.2449 C.3     
  43 C43            1.4490    -2.1268     3.0761 C.3     
  44 H44            1.5096    -1.6983     0.4004 H       
  45 C45            0.1792    -0.0127     3.0296 C.2     
  46 C46            1.0631     0.5009     4.1021 C.3     
  47 N47            2.3475    -0.1436     4.3187 N.4     
  48 C48            4.2933     0.3209     2.9054 C.3     
  49 C49            3.3972     0.8840     4.0379 C.3     
  50 H50            3.3600    -1.9207     3.9660 H       
  51 H51           -0.4029    -1.8237     2.0285 H       
  52 C52           -0.9352     0.5762     2.6752 C.2     
  53 C53           -1.7947     0.0620     1.5966 C.3     
  54 H54            0.2615    -0.4229    -0.9187 H       
  55 C55            2.6442     6.3864     0.8088 C.3     
  56 C56            2.4492    -0.5687     5.7262 C.3     
  57 C57            2.2724     0.6457     6.6398 C.3     
  58 C58            2.5080     0.2292     8.0931 C.3     
  59 C59            1.3763     7.2421     0.8410 C.3     
  60 C60            1.7566     8.7099     1.0452 C.3     
  61 N61            0.5425     9.5292     1.0760 N.am    
  62 N62            2.3387     1.3921     8.9679 N.am    
  63 C63           -0.1523     9.8187     2.1910 C.2     
  64 C64           -1.3072    10.6635     1.8202 C.ar    
  65 C65           -1.2258    10.8366     0.4238 C.ar    
  66 C66           -0.0210    10.0959    -0.0061 C.2     
  67 C67           -2.3430    11.2515     2.5282 C.ar    
  68 C68           -3.2924    12.0063     1.8573 C.ar    
  69 C69           -3.2126    12.1761     0.4878 C.ar    
  70 C70           -2.1821    11.5939    -0.2336 C.ar    
  71 O71            0.3873    10.0072    -1.1464 O.2     
  72 O72            0.1232     9.4479     3.3142 O.2     
  73 C73            1.1726     1.7590     9.5292 C.2     
  74 C74            1.4014     2.9741    10.3393 C.ar    
  75 C75            2.7716     3.2756    10.2036 C.ar    
  76 C76            3.3302     2.2303     9.3203 C.2     
  77 C77            0.5928     3.7807    11.1238 C.ar    
  78 C78            1.1378     4.8792    11.7700 C.ar    
  79 C79            2.4815     5.1749    11.6369 C.ar    
  80 C80            3.3026     4.3771    10.8554 C.ar    
  81 O81            0.1096     1.1876     9.3932 O.2     
  82 O82            4.4887     2.1468     8.9656 O.2     
  83 H83            4.7598    -3.2440     2.5680 H       
  84 H84            5.7889    -4.4186     0.6380 H       
  85 H85            5.6404    -3.4854    -1.6101 H       
  86 H86            4.4683    -1.3589    -2.0427 H       
  87 H87            2.9123     5.2335    -1.9048 H       
  88 H88            1.5259     4.3076    -2.5322 H       
  89 H89           -1.2027     5.1252    -1.8490 H       
  90 H90           -3.0772     4.0558    -3.0733 H       
  91 H91           -3.5302     1.6732    -2.8305 H       
  92 H92           -2.1304     0.2432    -1.3867 H       
  93 H93           -0.6622     4.8454     1.2851 H       
  94 H94           -0.2724     3.2262     1.9681 H       
  95 H95            3.3537     3.5039     1.7662 H       
  96 H96            4.3024     4.8056     1.0844 H       
  97 H97            1.2122     5.5232     2.5072 H       
  98 H98            1.8966     3.8799     2.5585 H       
  99 H99            5.5984     2.5485     0.5868 H       
 100 H100           5.8439     0.7692    -0.9227 H       
 101 H101           5.7245     2.0646    -2.0953 H       
 102 H102           1.7736    -2.9871     2.4901 H       
 103 H103           0.9424    -2.4678     3.9781 H       
 104 H104           1.2292     1.5601     3.9125 H       
 105 H105           0.5051     0.4374     5.0405 H       
 106 H106           5.1645    -0.1845     3.3194 H       
 107 H107           4.5815     1.1044     2.2100 H       
 108 H108           2.9508     1.8239     3.7245 H       
 109 H109           4.0028     1.0460     4.9326 H       
 110 H110          -1.2371     1.4760     3.1856 H       
 111 H111          -2.3866     0.8949     1.2198 H       
 112 H112          -2.4918    -0.6478     2.0442 H       
 113 H113           3.2301     6.5710     1.7092 H       
 114 H114           3.2357     6.6462    -0.0691 H       
 115 H115           1.6716    -1.3016     5.9414 H       
 116 H116           3.4280    -1.0155     5.9010 H       
 117 H117           2.9906     1.4171     6.3619 H       
 118 H118           1.2604     1.0363     6.5333 H       
 119 H119           1.7898    -0.5421     8.3710 H       
 120 H120           3.5201    -0.1613     8.1996 H       
 121 H121           0.8405     7.1333    -0.1020 H       
 122 H122           0.7377     6.9147     1.6615 H       
 123 H123           2.2924     8.8186     1.9882 H       
 124 H124           2.3951     9.0373     0.2247 H       
 125 H125          -2.4106    11.1219     3.5983 H       
 126 H126          -4.1003    12.4647     2.4083 H       
 127 H127          -3.9584    12.7665    -0.0237 H       
 128 H128          -2.1248    11.7299    -1.3034 H       
 129 H129          -0.4578     3.5546    11.2311 H       
 130 H130           0.5082     5.5086    12.3814 H       
 131 H131           2.8946     6.0336    12.1453 H       
 132 H132           4.3517     4.6129    10.7550 H       
@<TRIPOS>BOND
   1    1    2 1
   2    1    8 1
   3    1   21 1
   4    2    3 1
   5    2   40 1
   6    2   54 1
   7    3    4 1
   8    3   44 1
   9    3   42 1
  10    4    5 1
  11    4    9 1
  12    4   39 1
  13    5    6 1
  14    5   11 1
  15    6    7 1
  16    6   35 1
  17    6   38 1
  18    7    8 1
  19    7   33 1
  20    7   16 1
  21    8   19 1
  22    8   32 1
  23    9   10 1
  24    9   41 1
  25    9   48 1
  26   10   11 ar
  27   10   12 ar
  28   11   15 ar
  29   12   13 ar
  30   12   83 1
  31   13   14 ar
  32   13   84 1
  33   14   15 ar
  34   14   85 1
  35   15   86 1
  36   16   17 1
  37   16   27 1
  38   16   34 1
  39   17   18 1
  40   17   87 1
  41   17   88 1
  42   18   19 1
  43   18   28 1
  44   18   31 1
  45   19   20 1
  46   19   26 1
  47   20   21 ar
  48   20   22 ar
  49   21   25 ar
  50   22   23 ar
  51   22   89 1
  52   23   24 ar
  53   23   90 1
  54   24   25 ar
  55   24   91 1
  56   25   92 1
  57   26   30 1
  58   26   93 1
  59   26   94 1
  60   27   36 2
  61   27   29 1
  62   28   29 1
  63   28   55 1
  64   28   30 1
  65   29   95 1
  66   29   96 1
  67   30   97 1
  68   30   98 1
  69   35   37 1
  70   36   37 1
  71   36   99 1
  72   37  100 1
  73   37  101 1
  74   40   53 1
  75   41   47 1
  76   41   50 1
  77   41   43 1
  78   42   43 1
  79   42   45 1
  80   42   51 1
  81   43  102 1
  82   43  103 1
  83   45   46 1
  84   45   52 2
  85   46   47 1
  86   46  104 1
  87   46  105 1
  88   47   56 1
  89   47   49 1
  90   48   49 1
  91   48  106 1
  92   48  107 1
  93   49  108 1
  94   49  109 1
  95   52   53 1
  96   52  110 1
  97   53  111 1
  98   53  112 1
  99   55   59 1
 100   55  113 1
 101   55  114 1
 102   56   57 1
 103   56  115 1
 104   56  116 1
 105   57   58 1
 106   57  117 1
 107   57  118 1
 108   58   62 1
 109   58  119 1
 110   58  120 1
 111   59   60 1
 112   59  121 1
 113   59  122 1
 114   60   61 1
 115   60  123 1
 116   60  124 1
 117   61   63 am
 118   61   66 am
 119   62   73 am
 120   62   76 am
 121   63   64 1
 122   63   72 2
 123   64   65 ar
 124   64   67 ar
 125   65   66 1
 126   65   70 ar
 127   66   71 2
 128   67   68 ar
 129   67  125 1
 130   68   69 ar
 131   68  126 1
 132   69   70 ar
 133   69  127 1
 134   70  128 1
 135   73   74 1
 136   73   81 2
 137   74   75 ar
 138   74   77 ar
 139   75   76 1
 140   75   80 ar
 141   76   82 2
 142   77   78 ar
 143   77  129 1
 144   78   79 ar
 145   78  130 1
 146   79   80 ar
 147   79  131 1
 148   80  132 1

#	End of record

