#	Name: ASD01913059
#	Creating user name:	WinNT
#	Creation time:	15. 06. 2019 20:00

#	Modifying user name:	WinNT
#	Modification time:	15. 06. 2019 20:00

#	Program:	/corina/corina34_cracker 3.40 0067  02.08.2006

@<TRIPOS>MOLECULE
ASD01913059
  42   45    0    0    0
SMALL
NO_CHARGES


@<TRIPOS>ATOM
   1 C1            -0.0173     1.4278     0.0099 C.ar    
   2 C2             0.0021    -0.0041     0.0020 C.1     
   3 C3             0.0180    -1.1779    -0.0044 C.1     
   4 C4             0.0374    -2.6098    -0.0123 C.ar    
   5 C5            -1.2335     2.1242     0.0311 C.ar    
   6 C6            -1.1611    -3.3282    -0.0047 C.ar    
   7 C7             1.1756     2.1547     0.0024 C.ar    
   8 N8             1.1569     3.4714     0.0096 N.ar    
   9 C9             0.0271     4.1523     0.0240 C.ar    
  10 C10           -1.1967     3.5068     0.0379 C.ar    
  11 C11           -1.1346    -4.7071    -0.0129 C.ar    
  12 C12            0.0750    -5.3792    -0.0285 C.ar    
  13 C13            1.2658    -4.6745    -0.0361 C.ar    
  14 C14            1.2549    -3.2953    -0.0335 C.ar    
  15 C15           -2.4766     4.3022     0.0542 C.3     
  16 C16           -2.8211     4.8025    -1.3619 C.3     
  17 O17           -2.8087     6.2540    -1.2360 O.3     
  18 C18           -2.5117     6.5898     0.0243 C.2     
  19 N19           -2.3061     5.5396     0.8310 N.am    
  20 O20           -2.4348     7.7418     0.4030 O.2     
  21 C21           -4.1877     4.3197    -1.7749 C.ar    
  22 C22           -4.3154     3.1638    -2.5220 C.ar    
  23 C23           -5.5685     2.7198    -2.9019 C.ar    
  24 C24           -6.6947     3.4314    -2.5351 C.ar    
  25 C25           -6.5680     4.5894    -1.7863 C.ar    
  26 C26           -5.3132     5.0298    -1.4016 C.ar    
  27 F27           -7.6685     5.2860    -1.4271 F       
  28 H28           -2.1748     1.5949     0.0416 H       
  29 H29           -2.1058    -2.8050     0.0078 H       
  30 H30            2.1210     1.6326    -0.0090 H       
  31 H31            0.0580     5.2319     0.0295 H       
  32 H32           -2.0601    -5.2638    -0.0067 H       
  33 H33            0.0896    -6.4591    -0.0345 H       
  34 H34            2.2061    -5.2057    -0.0479 H       
  35 H35            2.1851    -2.7465    -0.0394 H       
  36 H36           -3.2931     3.7035     0.4579 H       
  37 H37           -2.0667     4.4745    -2.0771 H       
  38 H38           -2.0812     5.5877     1.7733 H       
  39 H39           -3.4357     2.6071    -2.8094 H       
  40 H40           -5.6671     1.8167    -3.4860 H       
  41 H41           -7.6734     3.0849    -2.8327 H       
  42 H42           -5.2132     5.9328    -0.8176 H       
@<TRIPOS>BOND
   1    1    2 1
   2    1    7 ar
   3    1    5 ar
   4    2    3 3
   5    3    4 1
   6    4    6 ar
   7    4   14 ar
   8    5   10 ar
   9    5   28 1
  10    6   11 ar
  11    6   29 1
  12    7    8 ar
  13    7   30 1
  14    8    9 ar
  15    9   10 ar
  16    9   31 1
  17   10   15 1
  18   11   12 ar
  19   11   32 1
  20   12   13 ar
  21   12   33 1
  22   13   14 ar
  23   13   34 1
  24   14   35 1
  25   15   16 1
  26   15   19 1
  27   15   36 1
  28   16   17 1
  29   16   21 1
  30   16   37 1
  31   17   18 1
  32   18   19 am
  33   18   20 2
  34   19   38 1
  35   21   22 ar
  36   21   26 ar
  37   22   23 ar
  38   22   39 1
  39   23   24 ar
  40   23   40 1
  41   24   25 ar
  42   24   41 1
  43   25   26 ar
  44   25   27 1
  45   26   42 1

#	End of record

