#	Name: ASD00431445
#	Creating user name:	WinNT
#	Creation time:	15. 06. 2019 18:35

#	Modifying user name:	WinNT
#	Modification time:	15. 06. 2019 18:35

#	Program:	/corina/corina34_cracker 3.40 0067  02.08.2006

@<TRIPOS>MOLECULE
ASD00431445
  49   52    0    0    0
SMALL
NO_CHARGES


@<TRIPOS>ATOM
   1 C1            -0.3757     1.6974    -0.6393 C.2     
   2 C2            -0.5768     0.2444    -0.9846 C.3     
   3 O3             0.7304     2.1056    -0.3547 O.2     
   4 N4            -1.4239     2.5445    -0.6521 N.am    
   5 C5            -1.2284     3.9570    -0.3164 C.3     
   6 C6            -0.7835     4.7211    -1.5651 C.3     
   7 O7            -3.7520     4.2899    -0.2850 O.3     
   8 N8            -4.6022     4.8979     0.3228 N.2     
   9 C9            -4.0764     5.6276     1.2792 C.2     
  10 C10           -2.6700     5.4047     1.2170 C.2     
  11 C11           -2.5232     4.5364     0.1923 C.2     
  12 S12           -4.0645     7.4729     3.5023 S.3     
  13 C13           -5.6068     8.0452     3.9669 C.2     
  14 N14           -6.5256     7.5281     3.2107 N.2     
  15 C15           -6.1306     6.6987     2.2698 C.2     
  16 C16           -4.7961     6.5021     2.2272 C.2     
  17 O17           -5.8369     8.9144     4.9797 O.3     
  18 C18           -7.1277     9.1948     5.2989 C.ar    
  19 C19           -7.8811     8.2760     6.0141 C.ar    
  20 C20           -9.1973     8.5652     6.3385 C.ar    
  21 C21           -9.7580     9.7731     5.9471 C.ar    
  22 C22           -9.0056    10.6866     5.2343 C.ar    
  23 C23           -7.6914    10.4032     4.9145 C.ar    
  24 O24           -9.9382     7.6667     7.0389 O.3     
  25 C25          -11.2872     8.0312     7.3382 C.3     
  26 C26          -11.9575     6.9035     8.1254 C.3     
  27 C27          -13.3754     7.1502     8.6446 C.3     
  28 C28          -13.1456     6.1950     7.4717 C.3     
  29 H29           -0.8023    -0.3167    -0.0777 H       
  30 H30           -1.4055     0.1490    -1.6863 H       
  31 H31            0.3317    -0.1501    -1.4395 H       
  32 H32           -2.3078     2.2189    -0.8836 H       
  33 H33           -0.4632     4.0446     0.4549 H       
  34 H34           -1.5486     4.6335    -2.3365 H       
  35 H35           -0.6380     5.7721    -1.3154 H       
  36 H36            0.1530     4.3021    -1.9331 H       
  37 H37           -1.9005     5.8310     1.8434 H       
  38 H38           -6.8160     6.2157     1.5891 H       
  39 H39           -7.4431     7.3366     6.3175 H       
  40 H40          -10.7835     9.9988     6.1997 H       
  41 H41           -9.4439    11.6257     4.9304 H       
  42 H42           -7.1038    11.1210     4.3614 H       
  43 H43          -11.2932     8.9438     7.9342 H       
  44 H44          -11.8324     8.2001     6.4096 H       
  45 H45          -11.2919     6.3028     8.7454 H       
  46 H46          -13.6428     6.7116     9.6059 H       
  47 H47          -13.8306     8.1160     8.4253 H       
  48 H48          -13.4497     6.5323     6.4808 H       
  49 H49          -13.2619     5.1279     7.6615 H       
@<TRIPOS>BOND
   1    1    2 1
   2    1    3 2
   3    1    4 am
   4    2   29 1
   5    2   30 1
   6    2   31 1
   7    4    5 1
   8    4   32 1
   9    5    6 1
  10    5   11 1
  11    5   33 1
  12    6   34 1
  13    6   35 1
  14    6   36 1
  15    7    8 1
  16    7   11 1
  17    8    9 2
  18    9   10 1
  19    9   16 1
  20   10   11 2
  21   10   37 1
  22   12   13 1
  23   12   16 1
  24   13   14 2
  25   13   17 1
  26   14   15 1
  27   15   16 2
  28   15   38 1
  29   17   18 1
  30   18   19 ar
  31   18   23 ar
  32   19   20 ar
  33   19   39 1
  34   20   21 ar
  35   20   24 1
  36   21   22 ar
  37   21   40 1
  38   22   23 ar
  39   22   41 1
  40   23   42 1
  41   24   25 1
  42   25   26 1
  43   25   43 1
  44   25   44 1
  45   26   27 1
  46   26   28 1
  47   26   45 1
  48   27   28 1
  49   27   46 1
  50   27   47 1
  51   28   48 1
  52   28   49 1

#	End of record

