#	Name: ASD08710026
#	Creating user name:	WinNT
#	Creation time:	15. 06. 2019 21:19

#	Modifying user name:	WinNT
#	Modification time:	15. 06. 2019 21:19

#	Program:	/corina/corina34_cracker 3.40 0067  02.08.2006

@<TRIPOS>MOLECULE
ASD08710026
  44   46    0    0    0
SMALL
NO_CHARGES


@<TRIPOS>ATOM
   1 C1            -0.8778    -0.2454    -1.4180 C.ar    
   2 C2            -0.6252    -1.5640    -1.1010 C.ar    
   3 C3             0.1846     0.6455    -1.5827 C.ar    
   4 C4             1.4966     0.1944    -1.4251 C.ar    
   5 C5             1.7349    -1.1269    -1.1080 C.ar    
   6 C6             0.6774    -2.0043    -0.9463 C.ar    
   7 S7             0.9908    -3.6901    -0.5408 S.o2    
   8 O8            -0.1452    -4.4252    -0.9749 O.2     
   9 O9             2.3124    -3.9698    -0.9817 O.2     
  10 N10            1.0159    -3.8005     1.1113 N.am    
  11 C11           -0.2167    -4.0808     1.8610 C.3     
  12 C12            2.2722    -3.6259     1.8537 C.3     
  13 C13            2.4980    -4.8624     2.7324 C.3     
  14 N14            1.2645    -5.1371     3.4825 N.am    
  15 C15            0.0144    -5.3163     2.7398 C.3     
  16 C16            1.2850    -5.2278     4.8271 C.2     
  17 O17            2.3449    -5.2101     5.4211 O.2     
  18 C18            0.0152    -5.3492     5.5809 C.ar    
  19 C19            0.0263    -5.8684     6.8731 C.ar    
  20 C20           -1.1696    -5.9754     7.5661 C.ar    
  21 C21           -2.3348    -5.5592     6.9419 C.ar    
  22 C22           -2.2715    -5.0522     5.6535 C.ar    
  23 N23           -1.1227    -4.9571     5.0209 N.ar    
  24 C24            2.8406    -6.0641     1.8496 C.3     
  25 C25           -0.0701     2.0156    -1.9122 C.1     
  26 N26           -0.2722     3.1025    -2.1737 N.1     
  27 H27           -1.8948     0.0959    -1.5429 H       
  28 H28           -1.4460    -2.2541    -0.9730 H       
  29 H29            2.3230     0.8782    -1.5514 H       
  30 H30            2.7491    -1.4772    -0.9862 H       
  31 H31           -0.4648    -3.2258     2.4899 H       
  32 H32           -1.0324    -4.2746     1.1645 H       
  33 H33            3.0997    -3.5194     1.1523 H       
  34 H34            2.2054    -2.7378     2.4820 H       
  35 H35            3.3148    -4.6722     3.4287 H       
  36 H36           -0.8148    -5.4222     3.4393 H       
  37 H37            0.0847    -6.2064     2.1145 H       
  38 H38            0.9534    -6.1835     7.3288 H       
  39 H39           -1.1928    -6.3743     8.5695 H       
  40 H40           -3.2830    -5.6296     7.4542 H       
  41 H41           -3.1776    -4.7269     5.1640 H       
  42 H42            3.7473    -5.8520     1.2830 H       
  43 H43            3.0007    -6.9415     2.4763 H       
  44 H44            2.0179    -6.2550     1.1605 H       
@<TRIPOS>BOND
   1    1    2 ar
   2    1    3 ar
   3    1   27 1
   4    2    6 ar
   5    2   28 1
   6    3    4 ar
   7    3   25 1
   8    4    5 ar
   9    4   29 1
  10    5    6 ar
  11    5   30 1
  12    6    7 1
  13    7    8 2
  14    7    9 2
  15    7   10 am
  16   10   11 1
  17   10   12 1
  18   11   15 1
  19   11   31 1
  20   11   32 1
  21   12   13 1
  22   12   33 1
  23   12   34 1
  24   13   14 1
  25   13   24 1
  26   13   35 1
  27   14   15 1
  28   14   16 am
  29   15   36 1
  30   15   37 1
  31   16   17 2
  32   16   18 1
  33   18   19 ar
  34   18   23 ar
  35   19   20 ar
  36   19   38 1
  37   20   21 ar
  38   20   39 1
  39   21   22 ar
  40   21   40 1
  41   22   23 ar
  42   22   41 1
  43   24   42 1
  44   24   43 1
  45   24   44 1
  46   25   26 3

#	End of record

