#	Name: ASD01813646
#	Creating user name:	WinNT
#	Creation time:	15. 06. 2019 19:30

#	Modifying user name:	WinNT
#	Modification time:	15. 06. 2019 19:30

#	Program:	/corina/corina34_cracker 3.40 0067  02.08.2006

@<TRIPOS>MOLECULE
ASD01813646
  45   48    0    0    0
SMALL
NO_CHARGES


@<TRIPOS>ATOM
   1 C1            -0.2227     1.1353     0.4877 C.ar    
   2 C2            -0.0742    -0.2441     0.4849 C.ar    
   3 C3             1.1656    -0.8186     0.2952 C.ar    
   4 C4             2.2853    -0.0097     0.1036 C.ar    
   5 C5             2.1302     1.3865     0.1072 C.ar    
   6 C6             0.8700     1.9526     0.3003 C.ar    
   7 N7             3.5304    -0.5706    -0.0861 N.pl3   
   8 C8             4.6353     0.1620    -0.2728 C.2     
   9 C9             4.6087     1.5422    -0.2890 C.2     
  10 C10            3.3223     2.2307    -0.0966 C.2     
  11 O11            3.2457     3.4468    -0.1028 O.2     
  12 C12            5.8441     2.3109    -0.4959 C.2     
  13 O13            5.8052     3.6584    -0.5097 O.3     
  14 O14            6.9011     1.7317    -0.6546 O.2     
  15 C15            3.6495    -2.0308    -0.0829 C.3     
  16 C16            3.4948    -2.5505    -1.4890 C.ar    
  17 C17            4.5764    -2.5675    -2.3493 C.ar    
  18 N18            4.4542    -3.0189    -3.5814 N.ar    
  19 C19            3.2962    -3.4731    -4.0439 C.ar    
  20 C20            2.1642    -3.4849    -3.2302 C.ar    
  21 C21            2.2659    -3.0219    -1.9304 C.ar    
  22 F22            1.2949    -2.1634     0.2954 F       
  23 C23            3.2056    -3.9713    -5.4367 C.ar    
  24 C24            4.1601    -4.8715    -5.9255 C.ar    
  25 C25            4.0658    -5.3325    -7.2315 C.ar    
  26 C26            3.0345    -4.9033    -8.0434 C.ar    
  27 C27            2.0899    -4.0129    -7.5623 C.ar    
  28 C28            2.1667    -3.5506    -6.2646 C.ar    
  29 N29            5.2005    -5.3025    -5.1047 N.pl3   
  30 H30           -1.2005     1.5702     0.6330 H       
  31 H31           -0.9383    -0.8748     0.6333 H       
  32 H32            0.7517     3.0261     0.3026 H       
  33 H33            5.5790    -0.3436    -0.4150 H       
  34 H34            6.6432     4.1204    -0.6491 H       
  35 H35            4.6283    -2.3146     0.3037 H       
  36 H36            2.8712    -2.4574     0.5498 H       
  37 H37            5.5348    -2.2055    -2.0073 H       
  38 H38            1.2221    -3.8540    -3.6079 H       
  39 H39            1.4063    -3.0188    -1.2766 H       
  40 H40            4.7997    -6.0269    -7.6130 H       
  41 H41            2.9647    -5.2639    -9.0591 H       
  42 H42            1.2869    -3.6818    -8.2042 H       
  43 H43            1.4273    -2.8563    -5.8935 H       
  44 H44            5.2162    -5.0496    -4.1683 H       
  45 H45            5.9090    -5.8555    -5.4696 H       
@<TRIPOS>BOND
   1    1    2 ar
   2    1    6 ar
   3    1   30 1
   4    2    3 ar
   5    2   31 1
   6    3    4 ar
   7    3   22 1
   8    4    5 ar
   9    4    7 1
  10    5    6 ar
  11    5   10 1
  12    6   32 1
  13    7    8 1
  14    7   15 1
  15    8    9 2
  16    8   33 1
  17    9   10 1
  18    9   12 1
  19   10   11 2
  20   12   13 1
  21   12   14 2
  22   13   34 1
  23   15   16 1
  24   15   35 1
  25   15   36 1
  26   16   17 ar
  27   16   21 ar
  28   17   18 ar
  29   17   37 1
  30   18   19 ar
  31   19   20 ar
  32   19   23 1
  33   20   21 ar
  34   20   38 1
  35   21   39 1
  36   23   24 ar
  37   23   28 ar
  38   24   25 ar
  39   24   29 1
  40   25   26 ar
  41   25   40 1
  42   26   27 ar
  43   26   41 1
  44   27   28 ar
  45   27   42 1
  46   28   43 1
  47   29   44 1
  48   29   45 1

#	End of record

