#	Name: ASD09740040
#	Creating user name:	WinNT
#	Creation time:	15. 06. 2019 21:22

#	Modifying user name:	WinNT
#	Modification time:	15. 06. 2019 21:22

#	Program:	/corina/corina34_cracker 3.40 0067  02.08.2006

@<TRIPOS>MOLECULE
ASD09740040
  54   57    0    0    0
SMALL
NO_CHARGES


@<TRIPOS>ATOM
   1 N1            -0.0137     1.2088     0.0108 N.2     
   2 O2             0.0026    -0.0038    -0.0001 O.3     
   3 C3             1.2068     1.6802     0.0130 C.2     
   4 N4             2.0467     0.6242     0.0020 N.2     
   5 C5             1.2706    -0.4439    -0.0063 C.2     
   6 C6             1.7131    -1.8532    -0.0193 C.ar    
   7 C7             1.5958     3.1128     0.0246 C.ar    
   8 C8             2.9414     3.4689     0.0251 C.ar    
   9 C9             3.2981     4.8024     0.0355 C.ar    
  10 C10            2.3218     5.7801     0.0458 C.ar    
  11 C11            0.9797     5.4333     0.0457 C.ar    
  12 C12            0.6126     4.1031     0.0291 C.ar    
  13 C13            3.0783    -2.1576    -0.0240 C.ar    
  14 C14            0.7709    -2.8788    -0.0213 C.ar    
  15 C15            1.1939    -4.2067    -0.0337 C.ar    
  16 C16            2.5661    -4.5004    -0.0440 C.ar    
  17 C17            3.4965    -3.4699    -0.0366 C.ar    
  18 O18            2.9833    -5.7905    -0.0556 O.3     
  19 C19            4.3887    -6.0167    -0.1807 C.3     
  20 C20            5.0423    -5.9417     1.2007 C.3     
  21 C21           -0.2575     6.3057     0.0560 C.3     
  22 C22           -1.4068     5.3716     0.4904 C.3     
  23 C23           -0.8965     3.9871     0.0328 C.3     
  24 N24           -0.0999     7.4025     1.0205 N.3     
  25 C25            0.5787     8.5510     0.4054 C.3     
  26 C26            0.7243     9.6704     1.4382 C.3     
  27 O27            1.5901     9.2385     2.4899 O.3     
  28 C28            4.6306    -7.4014    -0.7848 C.3     
  29 C29            0.2319    -5.2675    -0.0353 C.1     
  30 N30           -0.5312    -6.1090    -0.0366 N.1     
  31 H31            3.7041     2.7042     0.0177 H       
  32 H32            4.3413     5.0817     0.0359 H       
  33 H33            2.6063     6.8219     0.0544 H       
  34 H34            3.8072    -1.3607    -0.0179 H       
  35 H35           -0.2837    -2.6460    -0.0130 H       
  36 H36            4.5521    -3.6980    -0.0446 H       
  37 H37            4.8228    -5.2562    -0.8298 H       
  38 H38            6.1143    -6.1142     1.1052 H       
  39 H39            4.8700    -4.9552     1.6311 H       
  40 H40            4.6083    -6.7022     1.8498 H       
  41 H41           -0.4489     6.7025    -0.9410 H       
  42 H42           -1.5418     5.4000     1.5717 H       
  43 H43           -2.3324     5.6308    -0.0237 H       
  44 H44           -1.2614     3.7618    -0.9693 H       
  45 H45           -1.2145     3.2159     0.7343 H       
  46 H46           -0.9910     7.6740     1.4081 H       
  47 H47            1.5659     8.2464     0.0581 H       
  48 H48           -0.0088     8.9104    -0.4394 H       
  49 H49            1.1468    10.5538     0.9595 H       
  50 H50           -0.2548     9.9139     1.8506 H       
  51 H51            1.7284     9.8996     3.1819 H       
  52 H52            4.1650    -7.4548    -1.7689 H       
  53 H53            5.7026    -7.5739    -0.8802 H       
  54 H54            4.1965    -8.1619    -0.1357 H       
@<TRIPOS>BOND
   1    1    2 1
   2    1    3 2
   3    2    5 1
   4    3    4 1
   5    3    7 1
   6    4    5 2
   7    5    6 1
   8    6   13 ar
   9    6   14 ar
  10    7    8 ar
  11    7   12 ar
  12    8    9 ar
  13    8   31 1
  14    9   10 ar
  15    9   32 1
  16   10   11 ar
  17   10   33 1
  18   11   12 ar
  19   11   21 1
  20   12   23 1
  21   13   17 ar
  22   13   34 1
  23   14   15 ar
  24   14   35 1
  25   15   16 ar
  26   15   29 1
  27   16   17 ar
  28   16   18 1
  29   17   36 1
  30   18   19 1
  31   19   20 1
  32   19   28 1
  33   19   37 1
  34   20   38 1
  35   20   39 1
  36   20   40 1
  37   21   22 1
  38   21   24 1
  39   21   41 1
  40   22   23 1
  41   22   42 1
  42   22   43 1
  43   23   44 1
  44   23   45 1
  45   24   25 1
  46   24   46 1
  47   25   26 1
  48   25   47 1
  49   25   48 1
  50   26   27 1
  51   26   49 1
  52   26   50 1
  53   27   51 1
  54   28   52 1
  55   28   53 1
  56   28   54 1
  57   29   30 3

#	End of record

