#	Name: ASD03731639
#	Creating user name:	WinNT
#	Creation time:	15. 06. 2019 20:46

#	Modifying user name:	WinNT
#	Modification time:	15. 06. 2019 20:46

#	Program:	/corina/corina34_cracker 3.40 0067  02.08.2006

@<TRIPOS>MOLECULE
ASD03731639
  37   38    0    0    0
SMALL
NO_CHARGES


@<TRIPOS>ATOM
   1 C1            -0.4041     1.1039    -1.9609 C.2     
   2 C2            -0.2825    -0.2740    -1.4505 C.ar    
   3 C3             0.9013    -0.9943    -1.6489 C.ar    
   4 C4             1.0105    -2.2839    -1.1687 C.ar    
   5 C5            -0.0519    -2.8663    -0.4904 C.ar    
   6 C6            -1.2313    -2.1531    -0.2910 C.ar    
   7 C7            -1.3472    -0.8632    -0.7618 C.ar    
   8 O8             0.5249     1.6163    -2.5553 O.2     
   9 N9            -1.5468     1.7935    -1.7737 N.am    
  10 O10            0.0593    -4.1349    -0.0206 O.3     
  11 C11            1.2623    -4.7568    -0.1405 C.ar    
  12 C12            2.2130    -4.6276     0.8615 C.ar    
  13 C13            3.4349    -5.2598     0.7398 C.ar    
  14 C14            3.7116    -6.0239    -0.3842 C.ar    
  15 C15            2.7613    -6.1529    -1.3864 C.ar    
  16 C16            1.5372    -5.5254    -1.2623 C.ar    
  17 O17            4.9146    -6.6463    -0.5039 O.3     
  18 C18            5.1315    -7.4167    -1.6878 C.3     
  19 F19            5.0237    -6.5880    -2.8097 F       
  20 F20            6.4100    -7.9834    -1.6476 F       
  21 F21            4.1732    -8.4330    -1.7649 F       
  22 S22           -1.6833     3.3411    -2.3470 S.o2    
  23 O23           -2.9856     3.7483    -1.9499 O.2     
  24 O24           -0.5265     4.0015    -1.8521 O.2     
  25 C25           -1.5936     3.1654    -4.1502 C.3     
  26 F26           -2.2618    -2.7251     0.3693 F       
  27 F27            1.9351    -0.4285    -2.3095 F       
  28 H28            1.9232    -2.8406    -1.3210 H       
  29 H29           -2.2609    -0.3097    -0.6029 H       
  30 H30           -2.2892     1.3833    -1.3031 H       
  31 H31            1.9977    -4.0323     1.7366 H       
  32 H32            4.1751    -5.1589     1.5198 H       
  33 H33            2.9770    -6.7476    -2.2618 H       
  34 H34            0.7956    -5.6294    -2.0406 H       
  35 H35           -2.4099     2.5304    -4.4945 H       
  36 H36           -1.6762     4.1476    -4.6155 H       
  37 H37           -0.6407     2.7125    -4.4241 H       
@<TRIPOS>BOND
   1    1    2 1
   2    1    8 2
   3    1    9 am
   4    2    3 ar
   5    2    7 ar
   6    3    4 ar
   7    3   27 1
   8    4    5 ar
   9    4   28 1
  10    5    6 ar
  11    5   10 1
  12    6    7 ar
  13    6   26 1
  14    7   29 1
  15    9   22 am
  16    9   30 1
  17   10   11 1
  18   11   12 ar
  19   11   16 ar
  20   12   13 ar
  21   12   31 1
  22   13   14 ar
  23   13   32 1
  24   14   15 ar
  25   14   17 1
  26   15   16 ar
  27   15   33 1
  28   16   34 1
  29   17   18 1
  30   18   19 1
  31   18   20 1
  32   18   21 1
  33   22   23 2
  34   22   24 2
  35   22   25 1
  36   25   35 1
  37   25   36 1
  38   25   37 1

#	End of record

