#	Name: ASD03740058
#	Creating user name:	WinNT
#	Creation time:	15. 06. 2019 20:46

#	Modifying user name:	WinNT
#	Modification time:	15. 06. 2019 20:46

#	Program:	/corina/corina34_cracker 3.40 0067  02.08.2006

@<TRIPOS>MOLECULE
ASD03740058
  50   53    0    0    0
SMALL
NO_CHARGES


@<TRIPOS>ATOM
   1 C1            -0.0168     1.3849     0.0097 C.ar    
   2 C2             0.0021    -0.0041     0.0020 C.ar    
   3 C3             1.1850    -0.6877    -0.0125 C.ar    
   4 C4             2.3894     0.0113    -0.0203 C.ar    
   5 C5             2.3718     1.4195    -0.0131 C.ar    
   6 C6             1.1486     2.0963     0.0023 C.ar    
   7 N7             3.7063    -0.3680    -0.0346 N.pl3   
   8 N8             4.5133     0.7743    -0.0364 N.2     
   9 C9             3.7704     1.8474    -0.0241 C.2     
  10 O10            4.2163     3.1315    -0.0222 O.3     
  11 C11            4.1915    -1.7503    -0.0454 C.3     
  12 C12            4.3443    -2.2179    -1.4698 C.ar    
  13 C13            5.6318     3.3268    -0.0344 C.3     
  14 C14            5.9354     4.8029    -0.0303 C.ar    
  15 C15            6.0577     5.4857    -1.2264 C.ar    
  16 C16            5.5447    -2.0352    -2.1312 C.ar    
  17 C17            5.6873    -2.4630    -3.4370 C.ar    
  18 C18            4.6248    -3.0764    -4.0847 C.ar    
  19 C19            3.4214    -3.2586    -3.4189 C.ar    
  20 C20            3.2857    -2.8340    -2.1113 C.ar    
  21 C21            6.0855     5.4733     1.1696 C.ar    
  22 C22            6.3633     6.8265     1.1761 C.ar    
  23 C23            6.4921     7.5127    -0.0228 C.ar    
  24 C24            6.3359     6.8388    -1.2253 C.ar    
  25 O25            4.7624    -3.4977    -5.3694 O.3     
  26 C26            3.6269    -4.1208    -5.9730 C.3     
  27 O27            6.7650     8.8440    -0.0190 O.3     
  28 C28            6.8839     9.4854    -1.2905 C.3     
  29 H29           -0.9621     1.9071     0.0170 H       
  30 H30           -0.9296    -0.5502     0.0080 H       
  31 H31            1.1859    -1.7677    -0.0176 H       
  32 H32            1.1256     3.1760     0.0077 H       
  33 H33            5.1565    -1.8005     0.4590 H       
  34 H34            3.4771    -2.3902     0.4724 H       
  35 H35            6.0702     2.8632     0.8494 H       
  36 H36            6.0537     2.8716    -0.9305 H       
  37 H37            5.9359     4.9606    -2.1623 H       
  38 H38            6.3714    -1.5573    -1.6267 H       
  39 H39            6.6250    -2.3197    -3.9533 H       
  40 H40            2.5928    -3.7358    -3.9209 H       
  41 H41            2.3491    -2.9756    -1.5925 H       
  42 H42            5.9851     4.9386     2.1026 H       
  43 H43            6.4798     7.3498     2.1136 H       
  44 H44            6.4360     7.3707    -2.1599 H       
  45 H45            3.3527    -5.0077    -5.4017 H       
  46 H46            2.7908    -3.4216    -5.9820 H       
  47 H47            3.8711    -4.4085    -6.9956 H       
  48 H48            7.6919     9.0224    -1.8568 H       
  49 H49            5.9483     9.3797    -1.8396 H       
  50 H50            7.1021    10.5434    -1.1447 H       
@<TRIPOS>BOND
   1    1    2 ar
   2    1    6 ar
   3    1   29 1
   4    2    3 ar
   5    2   30 1
   6    3    4 ar
   7    3   31 1
   8    4    5 ar
   9    4    7 1
  10    5    6 ar
  11    5    9 1
  12    6   32 1
  13    7    8 1
  14    7   11 1
  15    8    9 2
  16    9   10 1
  17   10   13 1
  18   11   12 1
  19   11   33 1
  20   11   34 1
  21   12   16 ar
  22   12   20 ar
  23   13   14 1
  24   13   35 1
  25   13   36 1
  26   14   21 ar
  27   14   15 ar
  28   15   24 ar
  29   15   37 1
  30   16   17 ar
  31   16   38 1
  32   17   18 ar
  33   17   39 1
  34   18   19 ar
  35   18   25 1
  36   19   20 ar
  37   19   40 1
  38   20   41 1
  39   21   22 ar
  40   21   42 1
  41   22   23 ar
  42   22   43 1
  43   23   24 ar
  44   23   27 1
  45   24   44 1
  46   25   26 1
  47   26   45 1
  48   26   46 1
  49   26   47 1
  50   27   28 1
  51   28   48 1
  52   28   49 1
  53   28   50 1

#	End of record

