#	Name: ASD01870297
#	Creating user name:	WinNT
#	Creation time:	15. 06. 2019 19:38

#	Modifying user name:	WinNT
#	Modification time:	15. 06. 2019 19:38

#	Program:	/corina/corina34_cracker 3.40 0067  02.08.2006

@<TRIPOS>MOLECULE
ASD01870297
  33   35    0    0    0
SMALL
NO_CHARGES


@<TRIPOS>ATOM
   1 N1             0.1139     1.3809    -0.6731 N.2     
   2 C2             0.1565     0.0567    -0.8133 C.2     
   3 C3             1.3626    -0.5041    -0.6022 C.2     
   4 S4             2.5035     0.7762    -0.1976 S.3     
   5 C5             1.2213     1.9728    -0.3541 C.2     
   6 N6             1.3737     3.3397    -0.1651 N.am    
   7 C7             0.2245     4.2340    -0.3260 C.3     
   8 C8             2.5788     3.8441     0.1663 C.2     
   9 C9             2.7651     5.3055     0.2678 C.ar    
  10 O10            3.5125     3.0958     0.3818 O.2     
  11 C11            1.7249     6.1141     0.7314 C.ar    
  12 C12            3.9840     5.8835    -0.0940 C.ar    
  13 C13            4.1524     7.2480     0.0026 C.ar    
  14 C14            3.1145     8.0467     0.4581 C.ar    
  15 C15            1.9042     7.4776     0.8241 C.ar    
  16 F16            3.2851     9.3837     0.5513 F       
  17 C17           -1.0367    -0.7413    -1.1747 C.ar    
  18 N18           -2.1954    -0.1235    -1.3686 N.ar    
  19 C19           -3.2793    -0.8072    -1.6928 C.ar    
  20 C20           -3.1950    -2.1848    -1.8295 C.ar    
  21 C21           -1.9693    -2.7989    -1.6199 C.ar    
  22 N22           -0.9220    -2.0575    -1.3028 N.ar    
  23 H23            1.5912    -1.5575    -0.6691 H       
  24 H24           -0.2687     4.3686     0.6367 H       
  25 H25            0.5653     5.2003    -0.6979 H       
  26 H26           -0.4781     3.7985    -1.0365 H       
  27 H27            0.7817     5.6719     1.0164 H       
  28 H28            4.7932     5.2623    -0.4486 H       
  29 H29            5.0947     7.6960    -0.2766 H       
  30 H30            1.1006     8.1038     1.1824 H       
  31 H31           -4.2194    -0.2991    -1.8490 H       
  32 H32           -4.0656    -2.7670    -2.0932 H       
  33 H33           -1.8709    -3.8699    -1.7183 H       
@<TRIPOS>BOND
   1    1    2 1
   2    1    5 2
   3    2    3 2
   4    2   17 1
   5    3    4 1
   6    3   23 1
   7    4    5 1
   8    5    6 1
   9    6    7 1
  10    6    8 am
  11    7   24 1
  12    7   25 1
  13    7   26 1
  14    8    9 1
  15    8   10 2
  16    9   12 ar
  17    9   11 ar
  18   11   15 ar
  19   11   27 1
  20   12   13 ar
  21   12   28 1
  22   13   14 ar
  23   13   29 1
  24   14   15 ar
  25   14   16 1
  26   15   30 1
  27   17   18 ar
  28   17   22 ar
  29   18   19 ar
  30   19   20 ar
  31   19   31 1
  32   20   21 ar
  33   20   32 1
  34   21   22 ar
  35   21   33 1

#	End of record

