#	Name: ASD04882305
#	Creating user name:	WinNT
#	Creation time:	15. 06. 2019 20:54

#	Modifying user name:	WinNT
#	Modification time:	15. 06. 2019 20:54

#	Program:	/corina/corina34_cracker 3.40 0067  02.08.2006

@<TRIPOS>MOLECULE
ASD04882305
  82   86    0    0    0
SMALL
NO_CHARGES


@<TRIPOS>ATOM
   1 N1            -0.1840     1.1901    -0.3774 N.am    
   2 C2            -0.2075    -0.1978    -0.1877 C.ar    
   3 C3            -1.4230    -0.8543     0.0242 C.ar    
   4 C4            -1.4478    -2.2315     0.2121 C.ar    
   5 C5            -0.2754    -2.9538     0.1903 C.ar    
   6 C6             0.9436    -2.3036    -0.0211 C.ar    
   7 C7             0.9708    -0.9197    -0.2155 C.ar    
   8 N8            -2.6108    -0.1279     0.0475 N.3     
   9 C9            -3.5306    -0.5886    -1.0019 C.3     
  10 C10           -3.2468    -0.2006     1.3703 C.3     
  11 C11           -4.5036     0.6727     1.3779 C.3     
  12 N12           -5.4234     0.2119     0.3285 N.3     
  13 C13           -4.7875     0.2847    -0.9944 C.3     
  14 C14            2.1994    -3.0775    -0.0440 C.2     
  15 O15            3.2595    -2.5110    -0.2279 O.2     
  16 C16            0.8139     1.7568    -1.0841 C.2     
  17 C17            0.7873     3.1955    -1.3660 C.2     
  18 O18            1.7372     1.0744    -1.4883 O.2     
  19 C19            1.7291     3.8935    -2.0666 C.2     
  20 O20           -0.1747     4.0607    -0.9836 O.3     
  21 C21            0.1344     5.2895    -1.4178 C.2     
  22 C22            1.3039     5.2310    -2.0921 C.2     
  23 N23            2.1716    -4.4125     0.1390 N.am    
  24 C24           -6.6177     0.9424     0.3519 C.ar    
  25 C25           -6.5963     2.3158     0.1653 C.ar    
  26 C26           -7.8333     0.2893     0.5574 C.ar    
  27 C27           -9.0121     1.0183     0.5796 C.ar    
  28 C28           -8.9810     2.3891     0.3982 C.ar    
  29 C29           -7.7773     3.0354     0.1889 C.ar    
  30 C30           -0.6891     6.5318    -1.1951 C.3     
  31 N31           -7.8625    -1.0986     0.7404 N.am    
  32 C32            3.4186    -5.1811     0.1163 C.3     
  33 C33            3.1095    -6.6616     0.3474 C.3     
  34 C34            4.4119    -7.4642     0.3237 C.3     
  35 N35            4.1159    -8.8819     0.5450 N.am    
  36 C36            3.8522    -9.7635    -0.4348 C.2     
  37 C37            3.5831   -11.1308     0.1542 C.3     
  38 C38            3.3142   -10.8525     1.6513 C.3     
  39 C39            4.0754    -9.5232     1.8645 C.3     
  40 O40            3.8324    -9.5011    -1.6187 O.2     
  41 S41           -9.1358    -1.9837     0.1593 S.o2    
  42 O42           -8.7783    -3.3319     0.4308 O.2     
  43 O43          -10.2781    -1.3928     0.7636 O.2     
  44 C44           -9.1270    -1.6703    -1.6274 C.3     
  45 H45           -0.8881     1.7426    -0.0035 H       
  46 H46           -2.3885    -2.7361     0.3760 H       
  47 H47           -0.2980    -4.0236     0.3370 H       
  48 H48            1.9113    -0.4146    -0.3794 H       
  49 H49           -3.0413    -0.5133    -1.9730 H       
  50 H50           -3.8073    -1.6259    -0.8132 H       
  51 H51           -3.5203    -1.2335     1.5860 H       
  52 H52           -2.5506     0.1575     2.1287 H       
  53 H53           -4.9929     0.5974     2.3490 H       
  54 H54           -4.2269     1.7099     1.1892 H       
  55 H55           -4.5139     1.3176    -1.2100 H       
  56 H56           -5.4837    -0.0734    -1.7528 H       
  57 H57            2.6270     3.4938    -2.5143 H       
  58 H58            1.8157     6.0579    -2.5618 H       
  59 H59            1.3260    -4.8645     0.2857 H       
  60 H60           -5.6575     2.8240     0.0018 H       
  61 H61           -9.9549     0.5158     0.7381 H       
  62 H62           -9.9004     2.9555     0.4154 H       
  63 H63           -7.7584     4.1059     0.0478 H       
  64 H64           -1.5812     6.2786    -0.6224 H       
  65 H65           -0.0995     7.2645    -0.6441 H       
  66 H66           -0.9820     6.9509    -2.1577 H       
  67 H67           -7.1370    -1.5416     1.2075 H       
  68 H68            3.9037    -5.0580    -0.8521 H       
  69 H69            4.0816    -4.8212     0.9031 H       
  70 H70            2.6245    -6.7846     1.3158 H       
  71 H71            2.4465    -7.0215    -0.4394 H       
  72 H72            4.8969    -7.3412    -0.6447 H       
  73 H73            5.0749    -7.1043     1.1105 H       
  74 H74            2.7079   -11.5820    -0.3131 H       
  75 H75            4.4544   -11.7751     0.0365 H       
  76 H76            2.2476   -10.7304     1.8399 H       
  77 H77            3.7314   -11.6423     2.2760 H       
  78 H78            5.0847    -9.7202     2.2260 H       
  79 H79            3.5381    -8.8898     2.5703 H       
  80 H80           -8.1770    -1.9986    -2.0492 H       
  81 H81           -9.9424    -2.2205    -2.0968 H       
  82 H82           -9.2561    -0.6035    -1.8098 H       
@<TRIPOS>BOND
   1    1    2 1
   2    1   16 am
   3    1   45 1
   4    2    3 ar
   5    2    7 ar
   6    3    4 ar
   7    3    8 1
   8    4    5 ar
   9    4   46 1
  10    5    6 ar
  11    5   47 1
  12    6    7 ar
  13    6   14 1
  14    7   48 1
  15    8    9 1
  16    8   10 1
  17    9   13 1
  18    9   49 1
  19    9   50 1
  20   10   11 1
  21   10   51 1
  22   10   52 1
  23   11   12 1
  24   11   53 1
  25   11   54 1
  26   12   13 1
  27   12   24 1
  28   13   55 1
  29   13   56 1
  30   14   15 2
  31   14   23 am
  32   16   18 2
  33   16   17 1
  34   17   19 2
  35   17   20 1
  36   19   22 1
  37   19   57 1
  38   20   21 1
  39   21   22 2
  40   21   30 1
  41   22   58 1
  42   23   32 1
  43   23   59 1
  44   24   25 ar
  45   24   26 ar
  46   25   29 ar
  47   25   60 1
  48   26   27 ar
  49   26   31 1
  50   27   28 ar
  51   27   61 1
  52   28   29 ar
  53   28   62 1
  54   29   63 1
  55   30   64 1
  56   30   65 1
  57   30   66 1
  58   31   41 am
  59   31   67 1
  60   32   33 1
  61   32   68 1
  62   32   69 1
  63   33   34 1
  64   33   70 1
  65   33   71 1
  66   34   35 1
  67   34   72 1
  68   34   73 1
  69   35   36 am
  70   35   39 1
  71   36   37 1
  72   36   40 2
  73   37   38 1
  74   37   74 1
  75   37   75 1
  76   38   39 1
  77   38   76 1
  78   38   77 1
  79   39   78 1
  80   39   79 1
  81   41   42 2
  82   41   43 2
  83   41   44 1
  84   44   80 1
  85   44   81 1
  86   44   82 1

#	End of record

