#	Name: ASD01882426
#	Creating user name:	WinNT
#	Creation time:	15. 06. 2019 19:44

#	Modifying user name:	WinNT
#	Modification time:	15. 06. 2019 19:44

#	Program:	/corina/corina34_cracker 3.40 0067  02.08.2006

@<TRIPOS>MOLECULE
ASD01882426
  49   53    0    0    0
SMALL
NO_CHARGES


@<TRIPOS>ATOM
   1 C1             0.7488     1.4204     1.0871 C.2     
   2 C2             0.7847     0.0152     1.1039 C.2     
   3 C3             1.2065    -0.6546    -0.0130 C.2     
   4 C4             1.5963     0.0749    -1.1570 C.2     
   5 C5             1.5544     1.4216    -1.1510 C.2     
   6 N6             1.1352     2.0990    -0.0431 N.pl3   
   7 N7             0.5435     3.5072     1.4760 N.2     
   8 N8             0.3949     2.3326     1.9796 N.2     
   9 C9             0.9896     3.4231     0.2503 C.2     
  10 N10            1.2512    -2.0463    -0.0204 N.pl3   
  11 C11            2.5329    -2.7535    -0.1467 C.3     
  12 C12            2.4374    -3.7429    -1.3123 C.3     
  13 C13            1.2314    -4.6608    -1.0996 C.3     
  14 C14           -0.0497    -3.8241    -1.0701 C.3     
  15 C15            0.0182    -2.8356     0.1040 C.3     
  16 C16            1.1541    -5.6576    -2.2271 C.ar    
  17 C17            1.2238    -7.0118    -1.9584 C.ar    
  18 C18            1.1530    -7.9262    -2.9927 C.ar    
  19 C19            1.0120    -7.4865    -4.2956 C.ar    
  20 C20            0.9414    -6.1323    -4.5642 C.ar    
  21 C21            1.0079    -5.2181    -3.5295 C.ar    
  22 C22            1.2864     4.5779    -0.6713 C.3     
  23 C23            0.0301     4.9278    -1.4714 C.3     
  24 C24            0.0922     6.1548    -2.3832 C.3     
  25 C25            0.0875     4.7503    -2.9900 C.3     
  26 Br26           0.2577    -0.9377     2.6500 Br      
  27 H27            1.9298    -0.4488    -2.0408 H       
  28 H28            1.8551     1.9701    -2.0314 H       
  29 H29            3.3290    -2.0349    -0.3416 H       
  30 H30            2.7440    -3.2946     0.7757 H       
  31 H31            2.3167    -3.1942    -2.2463 H       
  32 H32            3.3471    -4.3418    -1.3566 H       
  33 H33            1.3409    -5.1908    -0.1534 H       
  34 H34           -0.1470    -3.2746    -2.0064 H       
  35 H35           -0.9102    -4.4807    -0.9419 H       
  36 H36            0.0284    -3.3833     1.0463 H       
  37 H37           -0.8455    -2.1712     0.0745 H       
  38 H38            1.3339    -7.3554    -0.9404 H       
  39 H39            1.2081    -8.9842    -2.7828 H       
  40 H40            0.9574    -8.2009    -5.1037 H       
  41 H41            0.8317    -5.7887    -5.5822 H       
  42 H42            0.9491    -4.1602    -3.7390 H       
  43 H43            1.5950     5.4421    -0.0831 H       
  44 H44            2.0876     4.2997    -1.3560 H       
  45 H45           -0.9172     4.7169    -0.9752 H       
  46 H46           -0.8143     6.7510    -2.4872 H       
  47 H47            1.0281     6.7129    -2.4130 H       
  48 H48            1.0203     4.3843    -3.4190 H       
  49 H49           -0.8221     4.4225    -3.4932 H       
@<TRIPOS>BOND
   1    1    2 1
   2    1    6 1
   3    1    8 2
   4    2    3 2
   5    2   26 1
   6    3    4 1
   7    3   10 1
   8    4    5 2
   9    4   27 1
  10    5    6 1
  11    5   28 1
  12    6    9 1
  13    7    8 1
  14    7    9 2
  15    9   22 1
  16   10   11 1
  17   10   15 1
  18   11   12 1
  19   11   29 1
  20   11   30 1
  21   12   13 1
  22   12   31 1
  23   12   32 1
  24   13   14 1
  25   13   16 1
  26   13   33 1
  27   14   15 1
  28   14   34 1
  29   14   35 1
  30   15   36 1
  31   15   37 1
  32   16   17 ar
  33   16   21 ar
  34   17   18 ar
  35   17   38 1
  36   18   19 ar
  37   18   39 1
  38   19   20 ar
  39   19   40 1
  40   20   21 ar
  41   20   41 1
  42   21   42 1
  43   22   23 1
  44   22   43 1
  45   22   44 1
  46   23   24 1
  47   23   25 1
  48   23   45 1
  49   24   25 1
  50   24   46 1
  51   24   47 1
  52   25   48 1
  53   25   49 1

#	End of record

