#	Name: ASD02562087
#	Creating user name:	WinNT
#	Creation time:	15. 06. 2019 20:25

#	Modifying user name:	WinNT
#	Modification time:	15. 06. 2019 20:25

#	Program:	/corina/corina34_cracker 3.40 0067  02.08.2006

@<TRIPOS>MOLECULE
ASD02562087
  48   50    0    0    0
SMALL
NO_CHARGES


@<TRIPOS>ATOM
   1 C1             0.3941     1.4457     1.1004 C.ar    
   2 C2             0.5072     0.0544     0.9766 C.ar    
   3 C3            -0.1434    -0.7445     1.9043 C.ar    
   4 N4            -0.8463    -0.1715     2.8713 N.ar    
   5 C5            -0.9338     1.1463     2.9611 C.ar    
   6 N6            -0.3242     1.9464     2.0995 N.ar    
   7 N7            -1.6804     1.7049     3.9895 N.pl3   
   8 N8             1.0278     2.2881     0.1961 N.pl3   
   9 C9            -2.4162     0.8840     4.8415 C.ar    
  10 C10            0.8661     3.6680     0.2984 C.ar    
  11 C11            1.9633     4.4762     0.5826 C.ar    
  12 C12           -2.9944    -0.2836     4.3526 C.ar    
  13 C13           -3.7224    -1.0967     5.1915 C.ar    
  14 C14           -3.8801    -0.7486     6.5363 C.ar    
  15 C15           -3.2975     0.4248     7.0243 C.ar    
  16 C16           -2.5665     1.2306     6.1809 C.ar    
  17 C17           -0.3912     4.2353     0.1105 C.ar    
  18 C18           -0.5552     5.5979     0.2102 C.ar    
  19 C19            0.5445     6.4139     0.5010 C.ar    
  20 C20            1.8081     5.8397     0.6840 C.ar    
  21 C21            3.3230     3.8569     0.7798 C.3     
  22 C22           -1.5742     3.3559    -0.2031 C.3     
  23 C23           -4.6372    -1.5918     7.4118 C.1     
  24 N24           -5.2377    -2.2607     8.1064 N.1     
  25 C25            0.3741     7.8699     0.6080 C.2     
  26 C26            1.4359     8.6550     0.8886 C.2     
  27 C27            1.2699    10.0735     0.9928 C.1     
  28 N28            1.1381    11.1988     1.0755 N.1     
  29 N29            1.2601    -0.5161    -0.0609 N.pl3   
  30 H30           -0.0787    -1.8206     1.8398 H       
  31 H31           -1.6899     2.6667     4.1148 H       
  32 H32            1.5829     1.9156    -0.5067 H       
  33 H33           -2.8721    -0.5519     3.3136 H       
  34 H34           -4.1714    -2.0024     4.8112 H       
  35 H35           -3.4174     0.6967     8.0626 H       
  36 H36           -2.1158     2.1371     6.5573 H       
  37 H37           -1.5309     6.0373     0.0639 H       
  38 H38            2.6590     6.4656     0.9089 H       
  39 H39            3.8404     3.8037    -0.1781 H       
  40 H40            3.9029     4.4667     1.4726 H       
  41 H41            3.2090     2.8525     1.1876 H       
  42 H42           -2.1092     3.1246     0.7180 H       
  43 H43           -2.2416     3.8761    -0.8901 H       
  44 H44           -1.2274     2.4310    -0.6639 H       
  45 H45           -0.6006     8.3117     0.4622 H       
  46 H46            2.4106     8.2132     1.0344 H       
  47 H47            1.7102     0.0541    -0.7036 H       
  48 H48            1.3304    -1.4806    -0.1353 H       
@<TRIPOS>BOND
   1    1    2 ar
   2    1    8 1
   3    1    6 ar
   4    2    3 ar
   5    2   29 1
   6    3    4 ar
   7    3   30 1
   8    4    5 ar
   9    5    6 ar
  10    5    7 1
  11    7    9 1
  12    7   31 1
  13    8   10 1
  14    8   32 1
  15    9   12 ar
  16    9   16 ar
  17   10   11 ar
  18   10   17 ar
  19   11   21 1
  20   11   20 ar
  21   12   13 ar
  22   12   33 1
  23   13   14 ar
  24   13   34 1
  25   14   15 ar
  26   14   23 1
  27   15   16 ar
  28   15   35 1
  29   16   36 1
  30   17   18 ar
  31   17   22 1
  32   18   19 ar
  33   18   37 1
  34   19   20 ar
  35   19   25 1
  36   20   38 1
  37   21   39 1
  38   21   40 1
  39   21   41 1
  40   22   42 1
  41   22   43 1
  42   22   44 1
  43   23   24 3
  44   25   26 2
  45   25   45 1
  46   26   27 1
  47   26   46 1
  48   27   28 3
  49   29   47 1
  50   29   48 1

#	End of record

