#	Name: ASD01028310
#	Creating user name:	WinNT
#	Creation time:	15. 06. 2019 18:56

#	Modifying user name:	WinNT
#	Modification time:	15. 06. 2019 18:56

#	Program:	/corina/corina34_cracker 3.40 0067  02.08.2006

@<TRIPOS>MOLECULE
ASD01028310
  48   52    0    0    0
SMALL
NO_CHARGES


@<TRIPOS>ATOM
   1 C1            -0.0157     1.3060     0.0092 C.ar    
   2 N2             0.0021    -0.0041     0.0020 N.ar    
   3 C3             1.1645     2.0563     0.0020 C.ar    
   4 C4             2.3770     1.4188    -0.0130 C.ar    
   5 C5             2.3867     0.0119    -0.0207 C.ar    
   6 C6             1.1525    -0.6850    -0.0126 C.ar    
   7 C7             3.5911    -0.7100    -0.0356 C.ar    
   8 C8             3.5598    -2.0712    -0.0422 C.ar    
   9 C9             2.3478    -2.7583    -0.0348 C.ar    
  10 C10            1.1619    -2.0906    -0.0203 C.ar    
  11 C11            4.9080    -3.7060    -1.2936 C.2     
  12 N12            5.8418    -3.6440    -2.2678 N.pl3   
  13 C13            5.4962    -4.6068    -3.1863 C.2     
  14 N14            4.3978    -5.1899    -2.7347 N.2     
  15 N15            4.0622    -4.6535    -1.6135 N.2     
  16 N16            6.9736    -2.8529    -2.4751 N.2     
  17 C17            7.7169    -3.0204    -3.5465 C.2     
  18 C18            7.3882    -3.9998    -4.5076 C.2     
  19 C19            6.2931    -4.7856    -4.3330 C.2     
  20 C20            8.9154    -2.1693    -3.7476 C.ar    
  21 C21            4.8530    -2.8448    -0.0582 C.3     
  22 C22            9.2497    -1.1984    -2.8054 C.ar    
  23 C23           10.3660    -0.4098    -2.9973 C.ar    
  24 C24           11.1522    -0.5816    -4.1223 C.ar    
  25 C25           10.8251    -1.5437    -5.0608 C.ar    
  26 C26            9.7141    -2.3415    -4.8764 C.ar    
  27 O27            1.1087     3.4142     0.0094 O.3     
  28 C28           -0.1901     4.0101     0.0245 C.3     
  29 C29            4.9321    -3.7318     1.1859 C.3     
  30 H30           -0.9658     1.8194     0.0165 H       
  31 H31            3.2995     1.9804    -0.0192 H       
  32 H32            4.5368    -0.1884    -0.0421 H       
  33 H33            2.3494    -3.8383    -0.0407 H       
  34 H34            0.2314    -2.6388    -0.0145 H       
  35 H35            8.0079    -4.1254    -5.3832 H       
  36 H36            6.0366    -5.5367    -5.0654 H       
  37 H37            5.6923    -2.1493    -0.0625 H       
  38 H38            8.6363    -1.0632    -1.9269 H       
  39 H39           10.6258     0.3431    -2.2680 H       
  40 H40           12.0246     0.0380    -4.2687 H       
  41 H41           11.4423    -1.6734    -5.9375 H       
  42 H42            9.4596    -3.0925    -5.6098 H       
  43 H43           -0.7263     3.6900     0.9180 H       
  44 H44           -0.0918     5.0956     0.0291 H       
  45 H45           -0.7429     3.6991    -0.8619 H       
  46 H46            5.8675    -4.2913     1.1743 H       
  47 H47            4.8924    -3.1089     2.0794 H       
  48 H48            4.0928    -4.4273     1.1902 H       
@<TRIPOS>BOND
   1    1    2 ar
   2    1    3 ar
   3    1   30 1
   4    2    6 ar
   5    3    4 ar
   6    3   27 1
   7    4    5 ar
   8    4   31 1
   9    5    6 ar
  10    5    7 ar
  11    6   10 ar
  12    7    8 ar
  13    7   32 1
  14    8    9 ar
  15    8   21 1
  16    9   10 ar
  17    9   33 1
  18   10   34 1
  19   11   12 1
  20   11   21 1
  21   11   15 2
  22   12   13 1
  23   12   16 1
  24   13   14 2
  25   13   19 1
  26   14   15 1
  27   16   17 2
  28   17   18 1
  29   17   20 1
  30   18   19 2
  31   18   35 1
  32   19   36 1
  33   20   22 ar
  34   20   26 ar
  35   21   29 1
  36   21   37 1
  37   22   23 ar
  38   22   38 1
  39   23   24 ar
  40   23   39 1
  41   24   25 ar
  42   24   40 1
  43   25   26 ar
  44   25   41 1
  45   26   42 1
  46   27   28 1
  47   28   43 1
  48   28   44 1
  49   28   45 1
  50   29   46 1
  51   29   47 1
  52   29   48 1

#	End of record

