#	Name: ASD03490042
#	Creating user name:	WinNT
#	Creation time:	15. 06. 2019 20:42

#	Modifying user name:	WinNT
#	Modification time:	15. 06. 2019 20:42

#	Program:	/corina/corina34_cracker 3.40 0067  02.08.2006

@<TRIPOS>MOLECULE
ASD03490042
  52   53    0    0    0
SMALL
NO_CHARGES


@<TRIPOS>ATOM
   1 C1             0.8264     1.1211    -1.0916 C.3     
   2 O2             0.6230    -0.2904    -0.8186 O.3     
   3 C3            -0.6449    -0.7305    -0.7977 C.2     
   4 C4            -0.9337    -2.1835    -0.5209 C.3     
   5 C5             2.3016     1.4286    -1.0747 C.2     
   6 O6            -1.5546     0.0382    -1.0009 O.2     
   7 O7            -2.3342    -2.4271    -0.6666 O.3     
   8 C8            -0.1579    -3.0559    -1.5113 C.3     
   9 O9            -0.5303    -2.5040     0.8120 O.3     
  10 C10           -0.7846    -3.8588     1.1887 C.3     
  11 C11           -0.0027    -4.7985     0.2672 C.3     
  12 C12           -0.4092    -4.5314    -1.1855 C.3     
  13 C13           -0.3406    -4.0778     2.6365 C.3     
  14 C14           -1.2342    -3.2620     3.5729 C.3     
  15 C15           -0.8721    -3.5765     5.0257 C.3     
  16 O16           -1.7818    -2.9049     5.8995 O.3     
  17 O17           -1.0384    -1.8685     3.3241 O.3     
  18 C18            1.4972    -4.5463     0.4333 C.3     
  19 O19            2.2211    -5.3414    -0.5079 O.3     
  20 O20           -1.7963    -4.8293    -1.3562 O.3     
  21 O21            3.1203     1.3414     0.0029 O.3     
  22 C22            4.3553     1.6956    -0.3865 C.2     
  23 O23            4.3023     1.9995    -1.6934 O.3     
  24 C24            3.0248     1.8253    -2.1113 C.2     
  25 O25            5.3450     1.7347     0.3185 O.2     
  26 Cl26           2.4360     2.0875    -3.7232 Cl      
  27 N27            1.9055    -4.9068     1.7933 N.am    
  28 O28            3.2514    -3.1484     1.9282 O.2     
  29 C29            2.7918    -4.1384     2.4569 C.2     
  30 C30            3.2117    -4.5093     3.8559 C.3     
  31 H31            0.4158     1.3645    -2.0715 H       
  32 H32            0.3228     1.7150    -0.3289 H       
  33 H33           -2.8882    -1.9072    -0.0684 H       
  34 H34           -0.4960    -2.8441    -2.5256 H       
  35 H35            0.9075    -2.8410    -1.4291 H       
  36 H36           -1.8509    -4.0668     1.0999 H       
  37 H37           -0.2296    -5.8331     0.5246 H       
  38 H38            0.1843    -5.1579    -1.8513 H       
  39 H39           -0.4231    -5.1357     2.8857 H       
  40 H40            0.6947    -3.7571     2.7514 H       
  41 H41           -2.2782    -3.5196     3.3947 H       
  42 H42           -0.9360    -4.6519     5.1915 H       
  43 H43            0.1438    -3.2373     5.2285 H       
  44 H44           -1.6115    -3.0594     6.8388 H       
  45 H45           -0.1298    -1.5680     3.4631 H       
  46 H46            1.7099    -3.4917     0.2576 H       
  47 H47            2.1401    -6.2940    -0.3626 H       
  48 H48           -2.1224    -4.6824    -2.2547 H       
  49 H49            1.5379    -5.6986     2.2161 H       
  50 H50            4.0849    -5.1603     3.8125 H       
  51 H51            3.4597    -3.6055     4.4124 H       
  52 H52            2.3944    -5.0303     4.3545 H       
@<TRIPOS>BOND
   1    1    2 1
   2    1    5 1
   3    1   31 1
   4    1   32 1
   5    2    3 1
   6    3    4 1
   7    3    6 2
   8    4    7 1
   9    4    8 1
  10    4    9 1
  11    5   21 1
  12    5   24 2
  13    7   33 1
  14    8   12 1
  15    8   34 1
  16    8   35 1
  17    9   10 1
  18   10   11 1
  19   10   13 1
  20   10   36 1
  21   11   12 1
  22   11   18 1
  23   11   37 1
  24   12   20 1
  25   12   38 1
  26   13   14 1
  27   13   39 1
  28   13   40 1
  29   14   15 1
  30   14   17 1
  31   14   41 1
  32   15   16 1
  33   15   42 1
  34   15   43 1
  35   16   44 1
  36   17   45 1
  37   18   19 1
  38   18   27 1
  39   18   46 1
  40   19   47 1
  41   20   48 1
  42   21   22 1
  43   22   23 1
  44   22   25 2
  45   23   24 1
  46   24   26 1
  47   27   29 am
  48   27   49 1
  49   28   29 2
  50   29   30 1
  51   30   50 1
  52   30   51 1
  53   30   52 1

#	End of record

