#	Name: ASD01231377
#	Creating user name:	WinNT
#	Creation time:	15. 06. 2019 19:15

#	Modifying user name:	WinNT
#	Modification time:	15. 06. 2019 19:15

#	Program:	/corina/corina34_cracker 3.40 0067  02.08.2006

@<TRIPOS>MOLECULE
ASD01231377
  57   59    0    0    0
SMALL
NO_CHARGES


@<TRIPOS>ATOM
   1 N1            -0.0593     1.2858    -0.0111 N.am    
   2 C2             0.0879    -0.0432     0.1573 C.2     
   3 O3             1.1936    -0.5451     0.0960 O.2     
   4 N4            -0.9907    -0.8161     0.3936 N.am    
   5 S5            -1.5751     1.9497    -0.0744 S.o2    
   6 O6            -1.3826     3.2021    -0.7176 O.2     
   7 O7            -2.3766     0.9371    -0.6674 O.2     
   8 C8            -2.0366     2.1907     1.6633 C.3     
   9 S9             1.2759     2.2559    -0.1478 S.o2    
  10 O10            0.8689     3.4940     0.4185 O.2     
  11 O11            2.3242     1.4934     0.4343 O.2     
  12 C12            1.5301     2.4267    -1.9358 C.3     
  13 C13           -0.5664    -2.4848     2.1744 C.3     
  14 C14           -0.8217    -2.2445     0.6713 C.3     
  15 C15           -2.1408    -3.0096     0.4329 C.3     
  16 C16           -2.1671    -4.0928     1.4899 C.ar    
  17 C17           -2.9227    -5.2507     1.5698 C.ar    
  18 C18           -2.7751    -6.1041     2.6455 C.ar    
  19 C19           -1.8703    -5.8025     3.6464 C.ar    
  20 C20           -1.1159    -4.6484     3.5685 C.ar    
  21 C21           -1.2625    -3.7913     2.4905 C.ar    
  22 C22           -3.5991    -7.3632     2.7281 C.3     
  23 C23           -2.8613    -8.4915     2.0545 C.ar    
  24 C24           -1.9965    -9.2853     2.7848 C.ar    
  25 C25           -1.3198   -10.3201     2.1670 C.ar    
  26 C26           -1.5080   -10.5616     0.8188 C.ar    
  27 C27           -2.3732    -9.7685     0.0888 C.ar    
  28 C28           -3.0534    -8.7362     0.7078 C.ar    
  29 C29           -2.5779   -10.0314    -1.3808 C.3     
  30 F30           -1.7914   -11.1195    -1.7740 F       
  31 F31           -3.9259   -10.3200    -1.6196 F       
  32 F32           -2.2066    -8.8988    -2.1134 F       
  33 C33           -0.3764   -11.1848     2.9629 C.3     
  34 O34           -1.0924   -12.2957     3.5065 O.3     
  35 H35           -1.8789    -0.4264     0.3798 H       
  36 H36           -1.3194     2.8587     2.1404 H       
  37 H37           -3.0330     2.6292     1.7171 H       
  38 H38           -2.0346     1.2291     2.1765 H       
  39 H39            0.5989     2.7420    -2.4067 H       
  40 H40            2.3027     3.1724    -2.1233 H       
  41 H41            1.8413     1.4685    -2.3517 H       
  42 H42            0.5029    -2.5696     2.3676 H       
  43 H43           -0.9953    -1.6752     2.7650 H       
  44 H44           -0.0159    -2.6647     0.0694 H       
  45 H45           -2.9931    -2.3412     0.5551 H       
  46 H46           -2.1464    -3.4528    -0.5629 H       
  47 H47           -3.6300    -5.4869     0.7886 H       
  48 H48           -1.7538    -6.4686     4.4885 H       
  49 H49           -0.4092    -4.4134     4.3507 H       
  50 H50           -3.7727    -7.6159     3.7741 H       
  51 H51           -4.5551    -7.2051     2.2290 H       
  52 H52           -1.8495    -9.0967     3.8380 H       
  53 H53           -0.9787   -11.3697     0.3359 H       
  54 H54           -3.7323    -8.1188     0.1382 H       
  55 H55            0.4193   -11.5484     2.3127 H       
  56 H56            0.0563   -10.5993     3.7741 H       
  57 H57           -0.5464   -12.8962     4.0321 H       
@<TRIPOS>BOND
   1    1    2 am
   2    1    5 am
   3    1    9 am
   4    2    3 2
   5    2    4 am
   6    4   14 1
   7    4   35 1
   8    5    6 2
   9    5    7 2
  10    5    8 1
  11    8   36 1
  12    8   37 1
  13    8   38 1
  14    9   10 2
  15    9   11 2
  16    9   12 1
  17   12   39 1
  18   12   40 1
  19   12   41 1
  20   13   14 1
  21   13   21 1
  22   13   42 1
  23   13   43 1
  24   14   15 1
  25   14   44 1
  26   15   16 1
  27   15   45 1
  28   15   46 1
  29   16   17 ar
  30   16   21 ar
  31   17   18 ar
  32   17   47 1
  33   18   19 ar
  34   18   22 1
  35   19   20 ar
  36   19   48 1
  37   20   21 ar
  38   20   49 1
  39   22   23 1
  40   22   50 1
  41   22   51 1
  42   23   24 ar
  43   23   28 ar
  44   24   25 ar
  45   24   52 1
  46   25   26 ar
  47   25   33 1
  48   26   27 ar
  49   26   53 1
  50   27   28 ar
  51   27   29 1
  52   28   54 1
  53   29   30 1
  54   29   31 1
  55   29   32 1
  56   33   34 1
  57   33   55 1
  58   33   56 1
  59   34   57 1

#	End of record

