#	Name: ASD01885668
#	Creating user name:	WinNT
#	Creation time:	15. 06. 2019 19:50

#	Modifying user name:	WinNT
#	Modification time:	15. 06. 2019 19:50

#	Program:	/corina/corina34_cracker 3.40 0067  02.08.2006

@<TRIPOS>MOLECULE
ASD01885668
  51   53    0    0    0
SMALL
NO_CHARGES


@<TRIPOS>ATOM
   1 C1            -0.0160     1.3290     0.0093 C.ar    
   2 C2             1.2006     2.0571     0.0016 C.ar    
   3 C3             2.4279     1.3474    -0.0140 C.ar    
   4 C4             2.3762    -0.0398    -0.0210 C.ar    
   5 C5             1.1334    -0.6832    -0.0126 C.ar    
   6 N6             0.0021    -0.0041     0.0020 N.ar    
   7 C7            -1.2343     2.0355     0.0189 C.ar    
   8 C8            -1.2256     3.3958     0.0264 C.ar    
   9 C9            -0.0270     4.1070     0.0247 C.ar    
  10 C10            1.1708     3.4578     0.0100 C.ar    
  11 C11            3.7240     2.0634    -0.0230 C.ar    
  12 C12            4.7207     1.7180     0.8900 C.ar    
  13 C13            5.9261     2.3878     0.8776 C.ar    
  14 C14            3.9546     3.0817    -0.9484 C.ar    
  15 C15            1.0867    -2.1653    -0.0206 C.2     
  16 N16           -0.1011    -2.8021    -0.0130 N.am    
  17 O17            2.1192    -2.8056    -0.0340 O.2     
  18 C18           -2.5327     4.1456     0.0361 C.3     
  19 N19           -2.9504     4.3810     1.4204 N.am    
  20 C20           -4.0987     5.0389     1.6752 C.2     
  21 O21           -4.4826     5.2552     2.9474 O.3     
  22 O22           -4.7876     5.4369     0.7567 O.2     
  23 C23            6.1483     3.4026    -0.0399 C.ar    
  24 C24            5.1634     3.7455    -0.9528 C.ar    
  25 C25           -5.7304     5.9704     3.1470 C.3     
  26 C26           -6.8753     5.1890     2.4993 C.3     
  27 C27           -5.9986     6.1197     4.6459 C.3     
  28 C28           -5.6321     7.3562     2.5059 C.3     
  29 F29            7.3306     4.0561    -0.0479 F       
  30 H30            3.2882    -0.6182    -0.0333 H       
  31 H31           -2.1718     1.4994     0.0200 H       
  32 H32           -0.0480     5.1868     0.0304 H       
  33 H33            2.0928     4.0202     0.0045 H       
  34 H34            4.5484     0.9276     1.6056 H       
  35 H35            6.6982     2.1214     1.5843 H       
  36 H36            3.1878     3.3494    -1.6604 H       
  37 H37           -0.9254    -2.2910    -0.0022 H       
  38 H38           -0.1316    -3.7716    -0.0182 H       
  39 H39           -2.4072     5.1012    -0.4731 H       
  40 H40           -3.2929     3.5572    -0.4778 H       
  41 H41           -2.4005     4.0633     2.1536 H       
  42 H42            5.3413     4.5367    -1.6661 H       
  43 H43           -6.9453     4.2017     2.9560 H       
  44 H44           -7.8120     5.7259     2.6491 H       
  45 H45           -6.6842     5.0826     1.4315 H       
  46 H46           -5.1829     6.6764     5.1072 H       
  47 H47           -6.9353     6.6566     4.7956 H       
  48 H48           -6.0686     5.1325     5.1025 H       
  49 H49           -5.4410     7.2498     1.4381 H       
  50 H50           -6.5688     7.8931     2.6557 H       
  51 H51           -4.8164     7.9129     2.9673 H       
@<TRIPOS>BOND
   1    1    6 ar
   2    1    2 ar
   3    1    7 ar
   4    2    3 ar
   5    2   10 ar
   6    3   11 1
   7    3    4 ar
   8    4    5 ar
   9    4   30 1
  10    5   15 1
  11    5    6 ar
  12    7    8 ar
  13    7   31 1
  14    8   18 1
  15    8    9 ar
  16    9   10 ar
  17    9   32 1
  18   10   33 1
  19   11   12 ar
  20   11   14 ar
  21   12   13 ar
  22   12   34 1
  23   13   23 ar
  24   13   35 1
  25   14   24 ar
  26   14   36 1
  27   15   16 am
  28   15   17 2
  29   16   37 1
  30   16   38 1
  31   18   19 1
  32   18   39 1
  33   18   40 1
  34   19   20 am
  35   19   41 1
  36   20   21 1
  37   20   22 2
  38   21   25 1
  39   23   24 ar
  40   23   29 1
  41   24   42 1
  42   25   26 1
  43   25   27 1
  44   25   28 1
  45   26   43 1
  46   26   44 1
  47   26   45 1
  48   27   46 1
  49   27   47 1
  50   27   48 1
  51   28   49 1
  52   28   50 1
  53   28   51 1

#	End of record

