#	Name: ASD04910024
#	Creating user name:	WinNT
#	Creation time:	15. 06. 2019 20:55

#	Modifying user name:	WinNT
#	Modification time:	15. 06. 2019 20:55

#	Program:	/corina/corina34_cracker 3.40 0067  02.08.2006

@<TRIPOS>MOLECULE
ASD04910024
  57   59    0    0    0
SMALL
NO_CHARGES


@<TRIPOS>ATOM
   1 C1            -0.0184     1.5028     0.0103 C.2     
   2 C2             0.0021    -0.0041     0.0020 C.3     
   3 C3             1.4513    -0.4944    -0.0145 C.3     
   4 O4             1.0197     2.1211     0.0037 O.2     
   5 O5            -1.1898     2.1580     0.0194 O.3     
   6 C6             2.6473    -2.6171    -0.0373 C.2     
   7 C7             2.6674    -4.0954    -0.0454 C.ar    
   8 C8             3.8837    -4.7799    -0.0607 C.ar    
   9 C9             3.8954    -6.1594    -0.0677 C.ar    
  10 C10            2.7049    -6.8644    -0.0601 C.ar    
  11 C11            1.4958    -6.1920    -0.0450 C.ar    
  12 C12            1.4701    -4.8127    -0.0320 C.ar    
  13 O13            3.6916    -1.9951    -0.0439 O.2     
  14 N14            1.4712    -1.9592    -0.0225 N.am    
  15 C15            2.7254    -8.3712    -0.0689 C.3     
  16 C16            2.4957    -8.8926     1.3511 C.3     
  17 C17            2.6401   -10.4157     1.3646 C.3     
  18 C18            2.4104   -10.9372     2.7846 C.3     
  19 O19            1.6915    -8.8566    -0.9276 O.3     
  20 C20            1.9127   -10.0429    -1.5488 C.ar    
  21 C21            0.9435   -10.5655    -2.3959 C.ar    
  22 C22            1.1783   -11.7749    -3.0242 C.ar    
  23 C23            2.3864   -12.4257    -2.7806 C.ar    
  24 C24            3.3064   -11.8431    -1.9226 C.ar    
  25 N25            3.0504   -10.6850    -1.3447 N.ar    
  26 N26            2.6679   -13.6551    -3.3957 N.pl3   
  27 N27            1.8283   -14.3466    -4.2785 N.2     
  28 C28            2.4339   -15.4492    -4.6401 C.2     
  29 C29            3.6772   -15.4959    -4.0004 C.2     
  30 C30            3.7997   -14.3791    -3.2458 C.2     
  31 C31            4.7018   -16.5930    -4.1331 C.3     
  32 F32            4.2220   -17.5763    -5.0050 F       
  33 F33            5.8920   -16.0606    -4.6402 F       
  34 F34            4.9426   -17.1606    -2.8773 F       
  35 H35           -0.4983    -0.3791     0.8948 H       
  36 H36           -0.5153    -0.3696    -0.8850 H       
  37 H37            1.9516    -0.1193    -0.9073 H       
  38 H38            1.9686    -0.1289     0.8726 H       
  39 H39           -1.1523     3.1243     0.0245 H       
  40 H40            4.8137    -4.2307    -0.0674 H       
  41 H41            4.8359    -6.6902    -0.0796 H       
  42 H42            0.5700    -6.7482    -0.0391 H       
  43 H43            0.5257    -4.2891    -0.0157 H       
  44 H44            0.6378    -2.4556    -0.0172 H       
  45 H45            3.6924    -8.7193    -0.4318 H       
  46 H46            3.2317    -8.4519     2.0234 H       
  47 H47            1.4932    -8.6197     1.6806 H       
  48 H48            1.9040   -10.8565     0.6922 H       
  49 H49            3.6426   -10.6886     1.0351 H       
  50 H50            3.1464   -10.4964     3.4570 H       
  51 H51            1.4079   -10.6643     3.1141 H       
  52 H52            2.5132   -12.0223     2.7942 H       
  53 H53            0.0180   -10.0340    -2.5615 H       
  54 H54            0.4426   -12.2051    -3.6877 H       
  55 H55            4.2450   -12.3408    -1.7284 H       
  56 H56            2.0413   -16.1947    -5.3158 H       
  57 H57            4.6483   -14.1147    -2.6323 H       
@<TRIPOS>BOND
   1    1    2 1
   2    1    4 2
   3    1    5 1
   4    2    3 1
   5    2   35 1
   6    2   36 1
   7    3   14 1
   8    3   37 1
   9    3   38 1
  10    5   39 1
  11    6    7 1
  12    6   13 2
  13    6   14 am
  14    7    8 ar
  15    7   12 ar
  16    8    9 ar
  17    8   40 1
  18    9   10 ar
  19    9   41 1
  20   10   11 ar
  21   10   15 1
  22   11   12 ar
  23   11   42 1
  24   12   43 1
  25   14   44 1
  26   15   16 1
  27   15   19 1
  28   15   45 1
  29   16   17 1
  30   16   46 1
  31   16   47 1
  32   17   18 1
  33   17   48 1
  34   17   49 1
  35   18   50 1
  36   18   51 1
  37   18   52 1
  38   19   20 1
  39   20   21 ar
  40   20   25 ar
  41   21   22 ar
  42   21   53 1
  43   22   23 ar
  44   22   54 1
  45   23   24 ar
  46   23   26 1
  47   24   25 ar
  48   24   55 1
  49   26   27 1
  50   26   30 1
  51   27   28 2
  52   28   29 1
  53   28   56 1
  54   29   30 2
  55   29   31 1
  56   30   57 1
  57   31   32 1
  58   31   33 1
  59   31   34 1

#	End of record

