#	Name: ASD01811406
#	Creating user name:	WinNT
#	Creation time:	15. 06. 2019 19:26

#	Modifying user name:	WinNT
#	Modification time:	15. 06. 2019 19:26

#	Program:	/corina/corina34_cracker 3.40 0067  02.08.2006

@<TRIPOS>MOLECULE
ASD01811406
  69   73    0    0    0
SMALL
NO_CHARGES


@<TRIPOS>ATOM
   1 C1            -0.1950     1.6864    -1.1761 C.2     
   2 C2            -0.1605     0.2352    -1.4386 C.ar    
   3 C3             0.8603    -0.3221    -2.2244 C.ar    
   4 C4             0.8532    -1.6732    -2.4415 C.ar    
   5 C5            -0.1589    -2.4507    -1.8809 C.ar    
   6 N6            -1.1119    -1.8991    -1.1421 N.ar    
   7 C7            -1.1392    -0.6043    -0.9043 C.ar    
   8 O8             0.6650     2.4091    -1.6417 O.2     
   9 N9            -1.1828     2.2120    -0.4248 N.am    
  10 N10           -0.1695    -3.8180    -2.0988 N.pl3   
  11 C11            0.8782    -4.4380    -2.9138 C.3     
  12 C12            2.0970    -4.7350    -2.0379 C.3     
  13 C13            0.3518    -5.7429    -3.5147 C.3     
  14 C14           -1.1611     3.5705    -0.0920 C.ar    
  15 C15           -2.3537     4.2704     0.0502 C.ar    
  16 C16           -2.3376     5.6127     0.3789 C.ar    
  17 C17           -1.1373     6.2674     0.5681 C.ar    
  18 C18            0.0657     5.5735     0.4281 C.ar    
  19 C19            0.0494     4.2174     0.1015 C.ar    
  20 C20           -3.6685     3.5632    -0.1551 C.3     
  21 C21            1.3530     6.2724     0.6302 C.2     
  22 O22            2.2226     5.7605     1.3078 O.2     
  23 C23            2.2922     9.3127    -1.9523 C.3     
  24 O24            2.0424    10.5295    -1.2311 O.3     
  25 C25            2.9538    11.4894    -1.7981 C.3     
  26 C26            3.1871    11.0490    -3.2249 C.ar    
  27 C27            3.6890    11.6997    -4.3296 C.ar    
  28 C28            3.7907    11.0234    -5.5475 C.ar    
  29 C29            3.3822     9.6908    -5.6353 C.ar    
  30 C30            2.8815     9.0502    -4.5205 C.ar    
  31 C31            2.7838     9.7239    -3.3184 C.ar    
  32 N32            1.5621     7.4770     0.0631 N.am    
  33 C33            2.8691     8.1390     0.1739 C.3     
  34 C34            3.3623     8.4935    -1.2330 C.3     
  35 C35            1.0006     8.5072    -2.0768 C.3     
  36 C36            0.4872     8.1517    -0.6773 C.3     
  37 C37            4.3112    11.6936    -6.7010 C.1     
  38 N38            4.7241    12.2252    -7.6161 N.1     
  39 H39            1.6336     0.3014    -2.6483 H       
  40 H40            1.6244    -2.1328    -3.0419 H       
  41 H41           -1.9273    -0.1881    -0.2943 H       
  42 H42           -1.9087     1.6482    -0.1148 H       
  43 H43           -0.8706    -4.3654    -1.7119 H       
  44 H44            1.1645    -3.7580    -3.7162 H       
  45 H45            2.4720    -3.8054    -1.6098 H       
  46 H46            1.8107    -5.4150    -1.2355 H       
  47 H47            2.8765    -5.1963    -2.6443 H       
  48 H48           -0.5165    -5.5313    -4.1388 H       
  49 H49            1.1313    -6.2041    -4.1211 H       
  50 H50            0.0655    -6.4229    -2.7124 H       
  51 H51           -3.2673     6.1513     0.4877 H       
  52 H52           -1.1289     7.3165     0.8242 H       
  53 H53            0.9770     3.6744    -0.0042 H       
  54 H54           -4.0099     3.1483     0.7933 H       
  55 H55           -4.4077     4.2718    -0.5288 H       
  56 H56           -3.5390     2.7581    -0.8783 H       
  57 H57            2.5100    12.4848    -1.7801 H       
  58 H58            3.8936    11.4867    -1.2458 H       
  59 H59            4.0028    12.7304    -4.2548 H       
  60 H60            3.4576     9.1627    -6.5743 H       
  61 H61            2.5651     8.0198    -4.5880 H       
  62 H62            2.7691     9.0486     0.7662 H       
  63 H63            3.5806     7.4655     0.6517 H       
  64 H64            3.5564     7.5781    -1.7919 H       
  65 H65            4.2798     9.0774    -1.1604 H       
  66 H66            0.2506     9.1010    -2.5994 H       
  67 H67            1.1951     7.5922    -2.6362 H       
  68 H68           -0.3720     7.4863    -0.7614 H       
  69 H69            0.1973     9.0618    -0.1523 H       
@<TRIPOS>BOND
   1    1    2 1
   2    1    8 2
   3    1    9 am
   4    2    3 ar
   5    2    7 ar
   6    3    4 ar
   7    3   39 1
   8    4    5 ar
   9    4   40 1
  10    5    6 ar
  11    5   10 1
  12    6    7 ar
  13    7   41 1
  14    9   14 1
  15    9   42 1
  16   10   11 1
  17   10   43 1
  18   11   12 1
  19   11   13 1
  20   11   44 1
  21   12   45 1
  22   12   46 1
  23   12   47 1
  24   13   48 1
  25   13   49 1
  26   13   50 1
  27   14   15 ar
  28   14   19 ar
  29   15   16 ar
  30   15   20 1
  31   16   17 ar
  32   16   51 1
  33   17   18 ar
  34   17   52 1
  35   18   19 ar
  36   18   21 1
  37   19   53 1
  38   20   54 1
  39   20   55 1
  40   20   56 1
  41   21   22 2
  42   21   32 am
  43   23   24 1
  44   23   31 1
  45   23   34 1
  46   23   35 1
  47   24   25 1
  48   25   26 1
  49   25   57 1
  50   25   58 1
  51   26   27 ar
  52   26   31 ar
  53   27   28 ar
  54   27   59 1
  55   28   29 ar
  56   28   37 1
  57   29   30 ar
  58   29   60 1
  59   30   31 ar
  60   30   61 1
  61   32   33 1
  62   32   36 1
  63   33   34 1
  64   33   62 1
  65   33   63 1
  66   34   64 1
  67   34   65 1
  68   35   36 1
  69   35   66 1
  70   35   67 1
  71   36   68 1
  72   36   69 1
  73   37   38 3

#	End of record

