#	Name: ASD02039391
#	Creating user name:	WinNT
#	Creation time:	15. 06. 2019 20:18

#	Modifying user name:	WinNT
#	Modification time:	15. 06. 2019 20:18

#	Program:	/corina/corina34_cracker 3.40 0067  02.08.2006

@<TRIPOS>MOLECULE
ASD02039391
  52   55    0    0    0
SMALL
NO_CHARGES


@<TRIPOS>ATOM
   1 C1            -0.1271     1.5233    -0.1521 C.ar    
   2 C2            -0.1250     0.1393    -0.0541 C.ar    
   3 C3            -1.3216    -0.5486    -0.1408 C.ar    
   4 C4            -2.5057     1.4158    -0.4018 C.ar    
   5 C5            -1.3375     2.1715    -0.3289 C.ar    
   6 C6            -3.8103     2.0949    -0.5914 C.ar    
   7 C7             1.1588     2.3040    -0.0620 C.3     
   8 N8             1.7991     2.3440    -1.3790 N.am    
   9 C9             1.3656     3.3274    -2.3747 C.3     
  10 C10            2.7870     1.4763    -1.6747 C.2     
  11 C11            3.1633     0.4310    -0.7071 C.2     
  12 C12            4.1818    -0.4662    -0.8447 C.2     
  13 N13            2.5635     0.1888     0.4864 N.2     
  14 C14            3.1667    -0.8085     1.0660 C.2     
  15 N15            4.1769    -1.2395     0.2665 N.pl3   
  16 O16            3.3678     1.5561    -2.7403 O.2     
  17 C17            5.0957    -2.3436     0.5547 C.3     
  18 C18           -3.8501     3.4830    -0.8014 C.ar    
  19 N19           -2.4592     0.0924    -0.3147 N.ar    
  20 C20            2.5143     4.2935    -2.6711 C.3     
  21 C21            0.9611     2.6057    -3.6617 C.3     
  22 C22           -4.9791     1.3565    -0.5660 C.ar    
  23 C23           -6.2087     2.0063    -0.7466 C.ar    
  24 C24           -6.2396     3.4083    -0.9524 C.ar    
  25 C25           -5.0312     4.1288    -0.9781 C.ar    
  26 C26           -7.4223     1.2915    -0.7282 C.ar    
  27 C27           -8.5831     1.9874    -0.9111 C.ar    
  28 C28           -8.5428     3.3660    -1.1085 C.ar    
  29 N29           -7.4113     4.0280    -1.1254 N.ar    
  30 H30            0.8023    -0.3957     0.0881 H       
  31 H31           -1.3234    -1.6259    -0.0653 H       
  32 H32           -1.3767     3.2484    -0.3995 H       
  33 H33            0.9445     3.3202     0.2689 H       
  34 H34            1.8267     1.8226     0.6523 H       
  35 H35            0.5128     3.8849    -1.9873 H       
  36 H36            4.8616    -0.5447    -1.6802 H       
  37 H37            2.9079    -1.2242     2.0286 H       
  38 H38            4.6795    -3.2733     0.1666 H       
  39 H39            6.0572    -2.1496     0.0794 H       
  40 H40            5.2339    -2.4294     1.6325 H       
  41 H41           -2.9279     4.0448    -0.8222 H       
  42 H42            3.3335     3.7503    -3.1422 H       
  43 H43            2.1652     5.0781    -3.3424 H       
  44 H44            2.8627     4.7404    -1.7400 H       
  45 H45            0.2083     1.8511    -3.4339 H       
  46 H46            0.5506     3.3266    -4.3688 H       
  47 H47            1.8363     2.1254    -4.0993 H       
  48 H48           -4.9453     0.2885    -0.4088 H       
  49 H49           -5.0436     5.1974    -1.1343 H       
  50 H50           -7.4345     0.2226    -0.5742 H       
  51 H51           -9.5309     1.4698    -0.9030 H       
  52 H52           -9.4684     3.9036    -1.2522 H       
@<TRIPOS>BOND
   1    1    2 ar
   2    1    7 1
   3    1    5 ar
   4    2    3 ar
   5    2   30 1
   6    3   19 ar
   7    3   31 1
   8    4    5 ar
   9    4    6 1
  10    4   19 ar
  11    5   32 1
  12    6   18 ar
  13    6   22 ar
  14    7    8 1
  15    7   33 1
  16    7   34 1
  17    8    9 1
  18    8   10 am
  19    9   20 1
  20    9   21 1
  21    9   35 1
  22   10   11 1
  23   10   16 2
  24   11   12 2
  25   11   13 1
  26   12   15 1
  27   12   36 1
  28   13   14 2
  29   14   15 1
  30   14   37 1
  31   15   17 1
  32   17   38 1
  33   17   39 1
  34   17   40 1
  35   18   25 ar
  36   18   41 1
  37   20   42 1
  38   20   43 1
  39   20   44 1
  40   21   45 1
  41   21   46 1
  42   21   47 1
  43   22   23 ar
  44   22   48 1
  45   23   24 ar
  46   23   26 ar
  47   24   25 ar
  48   24   29 ar
  49   25   49 1
  50   26   27 ar
  51   26   50 1
  52   27   28 ar
  53   27   51 1
  54   28   29 ar
  55   28   52 1

#	End of record

