#	Name: ASD01880129
#	Creating user name:	WinNT
#	Creation time:	15. 06. 2019 19:40

#	Modifying user name:	WinNT
#	Modification time:	15. 06. 2019 19:40

#	Program:	/corina/corina34_cracker 3.40 0067  02.08.2006

@<TRIPOS>MOLECULE
ASD01880129
  57   61    0    0    0
SMALL
NO_CHARGES


@<TRIPOS>ATOM
   1 C1             1.0734    -0.4376     0.7598 C.ar    
   2 C2             0.0034    -0.0063    -0.0220 C.ar    
   3 C3             0.1312     1.1411    -0.8026 C.ar    
   4 C4             1.3154     1.8471    -0.7999 C.ar    
   5 C5             2.3813     1.4151    -0.0199 C.ar    
   6 C6             2.2559     0.2714     0.7596 C.ar    
   7 C7            -1.2703    -0.7682    -0.0238 C.2     
   8 N8            -1.5377    -1.8827     0.6718 N.2     
   9 N9            -2.7491    -2.2268     0.3927 N.2     
  10 N10           -3.2428    -1.3793    -0.4411 N.pl3   
  11 N11           -2.3608    -0.4776    -0.7051 N.2     
  12 N12            3.5818     2.1321    -0.0193 N.am    
  13 C13            3.5638     3.4765    -0.1132 C.2     
  14 C14            4.8488     4.2565    -0.0072 C.3     
  15 O15            4.5709     5.6522    -0.1368 O.3     
  16 C16            5.6277     6.5001    -0.0637 C.ar    
  17 C17            6.9087     5.9973     0.1293 C.ar    
  18 C18            7.9884     6.8518     0.2044 C.ar    
  19 C19            7.7975     8.2305     0.0862 C.ar    
  20 C20            6.4980     8.7339    -0.1095 C.ar    
  21 C21            5.4281     7.8711    -0.1877 C.ar    
  22 C22            9.4563     6.5605     0.4060 C.3     
  23 C23           10.1687     7.9200     0.4009 C.3     
  24 C24            9.0773     8.9422     0.1958 C.2     
  25 C25           10.8706     8.1556     1.7398 C.3     
  26 C26           11.1783     7.9851    -0.7467 C.3     
  27 C27           11.5936     9.5253     1.7471 C.3     
  28 C28           11.7018     9.8881     3.2426 C.3     
  29 C29           10.5845     9.1148     3.9644 C.3     
  30 C30            9.8362     8.3090     2.8824 C.3     
  31 O31            9.2307    10.1438     0.1328 O.2     
  32 O32            2.5133     4.0585    -0.2830 O.2     
  33 Cl33           3.8265     8.4957    -0.4299 Cl      
  34 Cl34           6.2444    10.4448    -0.2582 Cl      
  35 H35            0.9749    -1.3240     1.3688 H       
  36 H36           -0.6967     1.4768    -1.4094 H       
  37 H37            1.4149     2.7364    -1.4046 H       
  38 H38            3.0855    -0.0627     1.3650 H       
  39 H39           -4.1395    -1.4120    -0.8096 H       
  40 H40            4.4275     1.6619     0.0487 H       
  41 H41            5.3104     4.0663     0.9618 H       
  42 H42            5.5287     3.9462    -0.8006 H       
  43 H43            7.0594     4.9318     0.2214 H       
  44 H44            9.6110     6.0601     1.3619 H       
  45 H45            9.8300     5.9388    -0.4076 H       
  46 H46           11.5707     7.3481     1.9546 H       
  47 H47           10.6607     7.8393    -1.6948 H       
  48 H48           11.6672     8.9594    -0.7458 H       
  49 H49           11.9265     7.2031    -0.6173 H       
  50 H50           12.5853     9.4356     1.3036 H       
  51 H51           11.0029    10.2713     1.2153 H       
  52 H52           12.6750     9.5870     3.6304 H       
  53 H53           11.5611    10.9605     3.3777 H       
  54 H54           11.0153     8.4383     4.7026 H       
  55 H55            9.9015     9.8119     4.4500 H       
  56 H56            8.9617     8.8585     2.5341 H       
  57 H57            9.5453     7.3317     3.2675 H       
@<TRIPOS>BOND
   1    1    2 ar
   2    1    6 ar
   3    1   35 1
   4    2    3 ar
   5    2    7 1
   6    3    4 ar
   7    3   36 1
   8    4    5 ar
   9    4   37 1
  10    5    6 ar
  11    5   12 1
  12    6   38 1
  13    7    8 1
  14    7   11 2
  15    8    9 2
  16    9   10 1
  17   10   11 1
  18   10   39 1
  19   12   13 am
  20   12   40 1
  21   13   14 1
  22   13   32 2
  23   14   15 1
  24   14   41 1
  25   14   42 1
  26   15   16 1
  27   16   17 ar
  28   16   21 ar
  29   17   18 ar
  30   17   43 1
  31   18   19 ar
  32   18   22 1
  33   19   20 ar
  34   19   24 1
  35   20   21 ar
  36   20   34 1
  37   21   33 1
  38   22   23 1
  39   22   44 1
  40   22   45 1
  41   23   24 1
  42   23   25 1
  43   23   26 1
  44   24   31 2
  45   25   27 1
  46   25   30 1
  47   25   46 1
  48   26   47 1
  49   26   48 1
  50   26   49 1
  51   27   28 1
  52   27   50 1
  53   27   51 1
  54   28   29 1
  55   28   52 1
  56   28   53 1
  57   29   30 1
  58   29   54 1
  59   29   55 1
  60   30   56 1
  61   30   57 1

#	End of record

