#	Name: ASD04660018
#	Creating user name:	WinNT
#	Creation time:	15. 06. 2019 20:52

#	Modifying user name:	WinNT
#	Modification time:	15. 06. 2019 20:52

#	Program:	/corina/corina34_cracker 3.40 0067  02.08.2006

@<TRIPOS>MOLECULE
ASD04660018
  51   55    0    0    0
SMALL
NO_CHARGES


@<TRIPOS>ATOM
   1 C1             5.7358     2.0292     3.0615 C.ar    
   2 C2             5.9663     0.6543     3.0642 C.ar    
   3 C3             5.3631    -0.2079     2.1874 C.ar    
   4 C4             4.4673     0.3071     1.2354 C.ar    
   5 C5             4.2472     1.6849     1.2465 C.ar    
   6 C6             4.8598     2.5759     2.1398 C.ar    
   7 C7             3.7723    -0.4426     0.2714 C.ar    
   8 C8             2.9335     0.2147    -0.5866 C.ar    
   9 C9             2.7327     1.5946    -0.5530 C.ar    
  10 C10            3.3974     2.3669     0.3809 C.ar    
  11 N11            3.4657     3.7112     0.7247 N.am    
  12 C12            4.3219     3.8892     1.7653 C.2     
  13 O13            4.5947     4.9509     2.2936 O.2     
  14 S14            3.9771    -2.1897     0.1694 S.o2    
  15 O15            3.1085    -2.6359    -0.8629 O.2     
  16 O16            5.3776    -2.4300     0.1647 O.2     
  17 N17            3.3967    -2.8344     1.5800 N.am    
  18 C18            1.9767    -2.7033     1.9157 C.3     
  19 C19            1.6230    -3.6896     3.0305 C.3     
  20 C20            0.1531    -3.5814     3.3416 C.ar    
  21 C21           -0.6403    -4.6840     3.5645 C.ar    
  22 C22           -0.1074    -6.0917     3.5062 C.3     
  23 C23            1.4163    -6.0938     3.6115 C.3     
  24 C24            1.9738    -5.1062     2.5798 C.3     
  25 O25            2.3773    -3.3680     4.2009 O.3     
  26 C26           -0.4032    -2.3100     3.4025 C.ar    
  27 C27           -1.7426    -2.1437     3.6869 C.ar    
  28 C28           -2.5388    -3.2510     3.9141 C.ar    
  29 C29           -1.9884    -4.5143     3.8535 C.ar    
  30 N30           -3.9767    -3.0813     4.2218 N.pl3   
  31 O31           -4.4604    -1.9648     4.2751 O.2     
  32 O32           -4.6761    -4.0583     4.4215 O.2     
  33 H33            6.2351     2.6643     3.7782 H       
  34 H34            6.6537     0.2496     3.7924 H       
  35 H35            5.5730    -1.2666     2.2269 H       
  36 H36            2.4006    -0.3636    -1.3269 H       
  37 H37            2.0582     2.0595    -1.2567 H       
  38 H38            2.9732     4.4215     0.2845 H       
  39 H39            3.9970    -3.2989     2.1841 H       
  40 H40            1.7754    -1.6865     2.2527 H       
  41 H41            1.3735    -2.9200     1.0340 H       
  42 H42           -0.5255    -6.6688     4.3309 H       
  43 H43           -0.4030    -6.5491     2.5620 H       
  44 H44            1.7155    -5.7857     4.6134 H       
  45 H45            1.7972    -7.0941     3.4055 H       
  46 H46            1.5270    -5.3023     1.6051 H       
  47 H47            3.0566    -5.2138     2.5162 H       
  48 H48            2.2137    -2.4781     4.5420 H       
  49 H49            0.2182    -1.4445     3.2259 H       
  50 H50           -2.1678    -1.1520     3.7324 H       
  51 H51           -2.6110    -5.3788     4.0310 H       
@<TRIPOS>BOND
   1    1    2 ar
   2    1    6 ar
   3    1   33 1
   4    2    3 ar
   5    2   34 1
   6    3    4 ar
   7    3   35 1
   8    4    5 ar
   9    4    7 ar
  10    5    6 ar
  11    5   10 ar
  12    6   12 1
  13    7    8 ar
  14    7   14 1
  15    8    9 ar
  16    8   36 1
  17    9   10 ar
  18    9   37 1
  19   10   11 1
  20   11   12 am
  21   11   38 1
  22   12   13 2
  23   14   15 2
  24   14   16 2
  25   14   17 am
  26   17   18 1
  27   17   39 1
  28   18   19 1
  29   18   40 1
  30   18   41 1
  31   19   20 1
  32   19   25 1
  33   19   24 1
  34   20   21 ar
  35   20   26 ar
  36   21   22 1
  37   21   29 ar
  38   22   23 1
  39   22   42 1
  40   22   43 1
  41   23   24 1
  42   23   44 1
  43   23   45 1
  44   24   46 1
  45   24   47 1
  46   25   48 1
  47   26   27 ar
  48   26   49 1
  49   27   28 ar
  50   27   50 1
  51   28   29 ar
  52   28   30 1
  53   29   51 1
  54   30   31 2
  55   30   32 2

#	End of record

