#	Name: ASD04370068
#	Creating user name:	WinNT
#	Creation time:	15. 06. 2019 20:49

#	Modifying user name:	WinNT
#	Modification time:	15. 06. 2019 20:49

#	Program:	/corina/corina34_cracker 3.40 0067  02.08.2006

@<TRIPOS>MOLECULE
ASD04370068
  51   51    0    0    0
SMALL
NO_CHARGES


@<TRIPOS>ATOM
   1 C1            -0.6617    -0.3500    -1.3103 C.2     
   2 C2             0.0144     0.0234    -0.0163 C.3     
   3 C3             1.4090    -0.6042     0.0301 C.3     
   4 C4             1.2809    -2.1274     0.0953 C.3     
   5 O5            -0.0474    -0.9469    -2.1625 O.2     
   6 O6            -1.9479    -0.0243    -1.5139 O.3     
   7 N7             2.1218    -0.1229     1.2161 N.am    
   8 C8             2.8503     1.0092     1.1513 C.2     
   9 C9             3.6735     1.4443     2.3361 C.3     
  10 C10            4.3974     2.7502     2.0022 C.3     
  11 C11            5.2333     3.1920     3.2052 C.3     
  12 C12            5.9572     4.4979     2.8713 C.3     
  13 C13            6.7930     4.9397     4.0742 C.3     
  14 O14            2.8432     1.6777     0.1394 O.2     
  15 C15            7.5060     6.2260     3.7453 C.ar    
  16 C16            6.9009     7.4397     4.0130 C.ar    
  17 C17            7.5549     8.6195     3.7113 C.ar    
  18 C18            8.8143     8.5857     3.1423 C.ar    
  19 C19            9.4198     7.3720     2.8754 C.ar    
  20 C20            8.7675     6.1922     3.1811 C.ar    
  21 N21            2.6130    -2.7242     0.2603 N.3     
  22 C22            2.5136    -4.1582     0.5634 C.3     
  23 C23            3.4441    -2.4939    -0.9289 C.3     
  24 H24            0.1017     1.1080     0.0483 H       
  25 H25           -0.5775    -0.3440     0.8221 H       
  26 H26            1.9634    -0.3241    -0.8656 H       
  27 H27            0.6518    -2.4033     0.9416 H       
  28 H28            0.8303    -2.4939    -0.8271 H       
  29 H29           -2.3382    -0.2850    -2.3594 H       
  30 H30            2.0695    -0.6190     2.0480 H       
  31 H31            3.0204     1.6003     3.1948 H       
  32 H32            4.4064     0.6728     2.5724 H       
  33 H33            5.0505     2.5943     1.1436 H       
  34 H34            3.6646     3.5217     1.7659 H       
  35 H35            4.5802     3.3479     4.0638 H       
  36 H36            5.9661     2.4205     3.4415 H       
  37 H37            6.6103     4.3420     2.0126 H       
  38 H38            5.2243     5.2694     2.6350 H       
  39 H39            6.1399     5.0956     4.9329 H       
  40 H40            7.5258     4.1682     4.3105 H       
  41 H41            5.9170     7.4661     4.4576 H       
  42 H42            7.0819     9.5678     3.9198 H       
  43 H43            9.3250     9.5075     2.9059 H       
  44 H44           10.4035     7.3456     2.4305 H       
  45 H45            9.2421     5.2440     2.9760 H       
  46 H46            2.0011    -4.6674    -0.2528 H       
  47 H47            3.5139    -4.5750     0.6807 H       
  48 H48            1.9519    -4.2961     1.4873 H       
  49 H49            3.5588    -1.4220    -1.0899 H       
  50 H50            4.4246    -2.9460    -0.7800 H       
  51 H51            2.9653    -2.9429    -1.7992 H       
@<TRIPOS>BOND
   1    1    2 1
   2    1    5 2
   3    1    6 1
   4    2    3 1
   5    2   24 1
   6    2   25 1
   7    3    4 1
   8    3    7 1
   9    3   26 1
  10    4   21 1
  11    4   27 1
  12    4   28 1
  13    6   29 1
  14    7    8 am
  15    7   30 1
  16    8    9 1
  17    8   14 2
  18    9   10 1
  19    9   31 1
  20    9   32 1
  21   10   11 1
  22   10   33 1
  23   10   34 1
  24   11   12 1
  25   11   35 1
  26   11   36 1
  27   12   13 1
  28   12   37 1
  29   12   38 1
  30   13   15 1
  31   13   39 1
  32   13   40 1
  33   15   16 ar
  34   15   20 ar
  35   16   17 ar
  36   16   41 1
  37   17   18 ar
  38   17   42 1
  39   18   19 ar
  40   18   43 1
  41   19   20 ar
  42   19   44 1
  43   20   45 1
  44   21   22 1
  45   21   23 1
  46   22   46 1
  47   22   47 1
  48   22   48 1
  49   23   49 1
  50   23   50 1
  51   23   51 1

#	End of record

