#	Name: ASD01420168
#	Creating user name:	WinNT
#	Creation time:	15. 06. 2019 19:20

#	Modifying user name:	WinNT
#	Modification time:	15. 06. 2019 19:20

#	Program:	/corina/corina34_cracker 3.40 0067  02.08.2006

@<TRIPOS>MOLECULE
ASD01420168
  61   64    0    0    0
SMALL
NO_CHARGES


@<TRIPOS>ATOM
   1 C1            -0.0144     1.2120     0.0087 C.2     
   2 O2             0.1295     0.0132     0.1547 O.2     
   3 C3             1.0482     3.4384    -0.4755 C.3     
   4 N4             1.0607     2.0009    -0.1867 N.am    
   5 C5             2.4665     1.5858    -0.1513 C.3     
   6 C6             3.3116     2.8043    -0.4252 C.ar    
   7 C7             4.6836     2.9612    -0.5037 C.ar    
   8 C8             5.2260     4.2102    -0.7735 C.ar    
   9 C9             4.3869     5.3009    -0.9642 C.ar    
  10 C10            3.0188     5.1381    -0.8847 C.ar    
  11 C11            2.4800     3.8908    -0.6154 C.ar    
  12 N12            6.6114     4.3700    -0.8525 N.pl3   
  13 N13            9.2361     7.2851    -2.3904 N.3     
  14 C14            9.2169     7.1204    -0.9313 C.3     
  15 C15            8.6049     5.7630    -0.5778 C.3     
  16 C16            7.1815     5.6891    -1.1373 C.3     
  17 C17            7.2245     5.9118    -2.6516 C.3     
  18 C18            7.8765     7.2649    -2.9450 C.3     
  19 C19            9.9422     8.5154    -2.7721 C.3     
  20 C20           -1.3642     1.8009     0.0394 C.ar    
  21 C21           -2.2646     1.4464     1.0558 C.ar    
  22 C22           -3.5308     2.0049     1.0775 C.ar    
  23 C23           -3.9068     2.9112     0.0968 C.ar    
  24 C24           -3.0152     3.2636    -0.9116 C.ar    
  25 C25           -1.7517     2.7197    -0.9407 C.ar    
  26 C26           -3.4329     4.2490    -1.9725 C.3     
  27 C27           -2.5005     5.4616    -1.9378 C.3     
  28 C28           -3.3523     3.5828    -3.3475 C.3     
  29 O29           -5.1495     3.4560     0.1208 O.3     
  30 O30           -1.8954     0.5593     2.0134 O.3     
  31 H31            0.5097     3.6238    -1.4048 H       
  32 H32            0.5694     3.9755     0.3433 H       
  33 H33            2.7079     1.1824     0.8321 H       
  34 H34            2.6482     0.8307    -0.9161 H       
  35 H35            5.3333     2.1115    -0.3546 H       
  36 H36            4.8045     6.2745    -1.1739 H       
  37 H37            2.3663     5.9859    -1.0326 H       
  38 H38            7.1959     3.6076    -0.7187 H       
  39 H39           10.2355     7.1707    -0.5467 H       
  40 H40            8.6203     7.9154    -0.4839 H       
  41 H41            9.2089     4.9670    -1.0133 H       
  42 H42            8.5765     5.6477     0.5057 H       
  43 H43            6.5668     6.4598    -0.6722 H       
  44 H44            7.8068     5.1182    -3.1198 H       
  45 H45            6.2099     5.9028    -3.0497 H       
  46 H46            7.2862     8.0592    -2.4882 H       
  47 H47            7.9217     7.4202    -4.0229 H       
  48 H48           10.9700     8.4711    -2.4118 H       
  49 H49            9.9416     8.6127    -3.8577 H       
  50 H50            9.4389     9.3752    -2.3299 H       
  51 H51           -4.2266     1.7346     1.8580 H       
  52 H52           -1.0610     2.9992    -1.7225 H       
  53 H53           -4.4568     4.5725    -1.7850 H       
  54 H54           -1.4766     5.1381    -2.1253 H       
  55 H55           -2.8027     6.1743    -2.7051 H       
  56 H56           -2.5580     5.9362    -0.9582 H       
  57 H57           -4.0165     2.7190    -3.3722 H       
  58 H58           -3.6544     4.2956    -4.1148 H       
  59 H59           -2.3284     3.2594    -3.5350 H       
  60 H60           -5.2088     4.2782     0.6264 H       
  61 H61           -1.4867     0.9660     2.7898 H       
@<TRIPOS>BOND
   1    1    2 2
   2    1    4 am
   3    1   20 1
   4    3    4 1
   5    3   11 1
   6    3   31 1
   7    3   32 1
   8    4    5 1
   9    5    6 1
  10    5   33 1
  11    5   34 1
  12    6    7 ar
  13    6   11 ar
  14    7    8 ar
  15    7   35 1
  16    8    9 ar
  17    8   12 1
  18    9   10 ar
  19    9   36 1
  20   10   11 ar
  21   10   37 1
  22   12   16 1
  23   12   38 1
  24   13   14 1
  25   13   18 1
  26   13   19 1
  27   14   15 1
  28   14   39 1
  29   14   40 1
  30   15   16 1
  31   15   41 1
  32   15   42 1
  33   16   17 1
  34   16   43 1
  35   17   18 1
  36   17   44 1
  37   17   45 1
  38   18   46 1
  39   18   47 1
  40   19   48 1
  41   19   49 1
  42   19   50 1
  43   20   21 ar
  44   20   25 ar
  45   21   22 ar
  46   21   30 1
  47   22   23 ar
  48   22   51 1
  49   23   24 ar
  50   23   29 1
  51   24   25 ar
  52   24   26 1
  53   25   52 1
  54   26   27 1
  55   26   28 1
  56   26   53 1
  57   27   54 1
  58   27   55 1
  59   27   56 1
  60   28   57 1
  61   28   58 1
  62   28   59 1
  63   29   60 1
  64   30   61 1

#	End of record

