#	Name: ASD02500002
#	Creating user name:	WinNT
#	Creation time:	15. 06. 2019 20:22

#	Modifying user name:	WinNT
#	Modification time:	15. 06. 2019 20:22

#	Program:	/corina/corina34_cracker 3.40 0067  02.08.2006

@<TRIPOS>MOLECULE
ASD02500002
  13   12    0    0    0
SMALL
NO_CHARGES


@<TRIPOS>ATOM
   1 C1            -0.0184     1.5028     0.0103 C.2     
   2 N2             1.3055    -0.4734    -0.4867 N.3     
   3 C3             0.0021    -0.0041     0.0020 C.3     
   4 C4            -0.2279    -0.5251     1.4221 C.3     
   5 O5             1.0197     2.1211     0.0037 O.2     
   6 O6            -1.1898     2.1580     0.0194 O.3     
   7 H7             1.4531    -0.1967    -1.4457 H       
   8 H8             2.0536    -0.1430     0.1043 H       
   9 H9            -0.7864    -0.3745    -0.6531 H       
  10 H10           -1.1950    -0.1768     1.7847 H       
  11 H11           -0.2131    -1.6149     1.4161 H       
  12 H12            0.5606    -0.1546     2.0772 H       
  13 H13           -1.1523     3.1243     0.0245 H       
@<TRIPOS>BOND
   1    1    3 1
   2    1    5 2
   3    1    6 1
   4    2    3 1
   5    2    7 1
   6    2    8 1
   7    3    4 1
   8    3    9 1
   9    4   10 1
  10    4   11 1
  11    4   12 1
  12    6   13 1

#	End of record

