#	Name: ASD01148094
#	Creating user name:	WinNT
#	Creation time:	15. 06. 2019 19:02

#	Modifying user name:	WinNT
#	Modification time:	15. 06. 2019 19:02

#	Program:	/corina/corina34_cracker 3.40 0067  02.08.2006

@<TRIPOS>MOLECULE
ASD01148094
  34   36    0    0    0
SMALL
NO_CHARGES


@<TRIPOS>ATOM
   1 C1            -0.0187     1.5258     0.0104 C.3     
   2 C2             0.0021    -0.0041     0.0020 C.3     
   3 C3             0.7421    -0.5109     1.2415 C.3     
   4 O4            -1.3386    -0.4987     0.0122 O.3     
   5 C5             1.7372    -3.2116    -4.6963 C.2     
   6 N6             0.8831    -3.2601    -3.7165 N.2     
   7 C7             1.0034    -2.1464    -2.9481 C.ar    
   8 C8             2.0198    -1.3616    -3.5188 C.ar    
   9 N9             2.4662    -2.0617    -4.6250 N.pl3   
  10 C10            0.3503    -1.6954    -1.7984 C.ar    
  11 C11            0.7074    -0.4901    -1.2379 C.ar    
  12 C12            1.7113     0.2812    -1.8055 C.ar    
  13 C13            2.3664    -0.1495    -2.9400 C.ar    
  14 C14            5.4927    -2.1022    -6.7147 C.ar    
  15 C15            4.5134    -2.5326    -5.8409 C.ar    
  16 C16            3.4770    -1.6647    -5.5052 C.ar    
  17 C17            3.4733    -0.3901    -6.0699 C.ar    
  18 C18            4.4882    -0.0364    -6.9344 C.ar    
  19 N19            5.4537    -0.8867    -7.2285 N.ar    
  20 Br20           6.9109    -3.2654    -7.1746 Br      
  21 H21            1.0039     1.9031     0.0027 H       
  22 H22           -0.5459     1.8868    -0.8726 H       
  23 H23           -0.5289     1.8773     0.9072 H       
  24 H24            0.2319    -0.1594     2.1383 H       
  25 H25            0.7568    -1.6008     1.2356 H       
  26 H26            1.7647    -0.1336     1.2338 H       
  27 H27           -1.8531    -0.2245     0.7836 H       
  28 H28            1.8549    -3.9730    -5.4531 H       
  29 H29           -0.4326    -2.2901    -1.3515 H       
  30 H30            1.9818     1.2250    -1.3556 H       
  31 H31            3.1470     0.4556    -3.3770 H       
  32 H32            4.5506    -3.5282    -5.4241 H       
  33 H33            2.6862     0.3107    -5.8340 H       
  34 H34            4.4928     0.9491    -7.3763 H       
@<TRIPOS>BOND
   1    1    2 1
   2    1   21 1
   3    1   22 1
   4    1   23 1
   5    2    3 1
   6    2    4 1
   7    2   11 1
   8    3   24 1
   9    3   25 1
  10    3   26 1
  11    4   27 1
  12    5    6 2
  13    5    9 1
  14    5   28 1
  15    6    7 1
  16    7    8 ar
  17    7   10 ar
  18    8    9 1
  19    8   13 ar
  20    9   16 1
  21   10   11 ar
  22   10   29 1
  23   11   12 ar
  24   12   13 ar
  25   12   30 1
  26   13   31 1
  27   14   15 ar
  28   14   19 ar
  29   14   20 1
  30   15   16 ar
  31   15   32 1
  32   16   17 ar
  33   17   18 ar
  34   17   33 1
  35   18   19 ar
  36   18   34 1

#	End of record

