#	Name: ASD05130046
#	Creating user name:	WinNT
#	Creation time:	15. 06. 2019 20:56

#	Modifying user name:	WinNT
#	Modification time:	15. 06. 2019 20:56

#	Program:	/corina/corina34_cracker 3.40 0067  02.08.2006

@<TRIPOS>MOLECULE
ASD05130046
  51   54    0    0    0
SMALL
NO_CHARGES


@<TRIPOS>ATOM
   1 N1            -0.1619     1.5508     0.1046 N.am    
   2 C2             0.0501     0.4228     0.8110 C.2     
   3 O3             1.1172     0.2446     1.3662 O.2     
   4 N4            -0.9205    -0.5078     0.9021 N.am    
   5 C5            -0.6655    -1.7243     1.5451 C.ar    
   6 C6            -1.6764    -2.3639     2.2504 C.ar    
   7 C7            -1.4216    -3.5646     2.8835 C.ar    
   8 C8            -0.1614    -4.1299     2.8157 C.ar    
   9 C9             0.8475    -3.4953     2.1146 C.ar    
  10 C10            0.5975    -2.2972     1.4745 C.ar    
  11 C11            0.8125     2.5575     0.0829 C.ar    
  12 C12            0.4365     3.8864    -0.0889 C.ar    
  13 C13            1.3957     4.8833    -0.1104 C.ar    
  14 C14            2.7318     4.5645     0.0380 C.ar    
  15 C15            3.1167     3.2344     0.2107 C.ar    
  16 C16            2.1496     2.2306     0.2381 C.ar    
  17 F17           -0.8685     4.2038    -0.2354 F       
  18 Cl18           3.9319     5.8186     0.0092 Cl      
  19 N19            6.5392     2.8496     1.7794 N.am    
  20 C20            5.2368     3.1630     1.6337 C.2     
  21 C21            4.5490     2.8902     0.3696 C.2     
  22 C22            5.2377     2.3151    -0.6633 C.2     
  23 C23            6.6048     1.9956    -0.4859 C.ar    
  24 C24            7.3481     1.4062    -1.5160 C.ar    
  25 N25            8.6179     1.1156    -1.3347 N.ar    
  26 C26            9.2441     1.3621    -0.1889 C.ar    
  27 C27            8.5825     1.9436     0.8834 C.ar    
  28 C28            7.2389     2.2715     0.7453 C.ar    
  29 O29            4.6289     3.6746     2.5571 O.2     
  30 C30            7.2173     3.1326     3.0468 C.3     
  31 C31            7.0843     1.9252     3.9770 C.3     
  32 N32           10.5854     1.0312    -0.0620 N.pl3   
  33 H33           -0.9874     1.6641    -0.3920 H       
  34 H34           -1.7959    -0.3344     0.5220 H       
  35 H35           -2.6607    -1.9227     2.3040 H       
  36 H36           -2.2073    -4.0623     3.4325 H       
  37 H37            0.0353    -5.0689     3.3116 H       
  38 H38            1.8308    -3.9390     2.0640 H       
  39 H39            1.3846    -1.8045     0.9230 H       
  40 H40            1.0993     5.9132    -0.2440 H       
  41 H41            2.4425     1.2002     0.3757 H       
  42 H42            4.7445     2.1074    -1.6014 H       
  43 H43            6.8766     1.1890    -2.4630 H       
  44 H44            9.1030     2.1387     1.8093 H       
  45 H45            8.2722     3.3314     2.8580 H       
  46 H46            6.7616     4.0046     3.5159 H       
  47 H47            7.5401     1.0532     3.5079 H       
  48 H48            7.5889     2.1357     4.9200 H       
  49 H49            6.0294     1.7264     4.1659 H       
  50 H50           11.0569     0.6240    -0.8055 H       
  51 H51           11.0516     1.2070     0.7702 H       
@<TRIPOS>BOND
   1    1    2 am
   2    1   11 1
   3    1   33 1
   4    2    3 2
   5    2    4 am
   6    4    5 1
   7    4   34 1
   8    5    6 ar
   9    5   10 ar
  10    6    7 ar
  11    6   35 1
  12    7    8 ar
  13    7   36 1
  14    8    9 ar
  15    8   37 1
  16    9   10 ar
  17    9   38 1
  18   10   39 1
  19   11   12 ar
  20   11   16 ar
  21   12   13 ar
  22   12   17 1
  23   13   14 ar
  24   13   40 1
  25   14   15 ar
  26   14   18 1
  27   15   16 ar
  28   15   21 1
  29   16   41 1
  30   19   20 am
  31   19   28 1
  32   19   30 1
  33   20   21 1
  34   20   29 2
  35   21   22 2
  36   22   23 1
  37   22   42 1
  38   23   24 ar
  39   23   28 ar
  40   24   25 ar
  41   24   43 1
  42   25   26 ar
  43   26   27 ar
  44   26   32 1
  45   27   28 ar
  46   27   44 1
  47   30   31 1
  48   30   45 1
  49   30   46 1
  50   31   47 1
  51   31   48 1
  52   31   49 1
  53   32   50 1
  54   32   51 1

#	End of record

