#	Name: ASD01908026
#	Creating user name:	WinNT
#	Creation time:	15. 06. 2019 19:54

#	Modifying user name:	WinNT
#	Modification time:	15. 06. 2019 19:54

#	Program:	/corina/corina34_cracker 3.40 0067  02.08.2006

@<TRIPOS>MOLECULE
ASD01908026
  56   59    0    0    0
SMALL
NO_CHARGES


@<TRIPOS>ATOM
   1 N1            -0.0153     1.2783     0.0091 N.pl3   
   2 N2             0.0021    -0.0041     0.0020 N.2     
   3 C3             1.2429    -0.4516    -0.0122 C.2     
   4 C4             2.1033     0.7380    -0.0141 C.2     
   5 C5             1.2320     1.7907    -0.0001 C.2     
   6 C6             1.6776    -1.8610    -0.0240 C.2     
   7 O7             2.8630    -2.1315    -0.0363 O.2     
   8 N8             0.7609    -2.8490    -0.0210 N.am    
   9 S9             5.9964     1.5416    -0.0457 S.3     
  10 C10            5.6247    -0.1266    -0.0515 C.2     
  11 N11            4.3436    -0.3037    -0.0406 N.2     
  12 C12            3.5861     0.7864    -0.0275 C.2     
  13 C13            4.2805     1.9393    -0.0275 C.2     
  14 O14            6.5430    -1.1233    -0.0656 O.3     
  15 C15            7.8556    -0.7800    -0.0753 C.ar    
  16 C16            8.8266    -1.7736    -0.0899 C.ar    
  17 C17           10.1617    -1.4101    -0.0997 C.ar    
  18 C18           10.4801    -0.0588    -0.0946 C.ar    
  19 C19            9.4630     0.8747    -0.0800 C.ar    
  20 N20            8.1986     0.4974    -0.0763 N.ar    
  21 C21            9.8012     2.3433    -0.0744 C.3     
  22 C22            1.1927    -4.2489    -0.0326 C.3     
  23 O23           -0.6195    -2.5340    -0.0067 O.3     
  24 C24           -1.1981    -2.3975    -1.3062 C.3     
  25 C25           -1.2377     2.0856     0.0194 C.3     
  26 C26           -2.1120     1.6884    -1.1420 C.ar    
  27 C27           -3.0497     0.6840    -0.9881 C.ar    
  28 C28           -3.8524     0.3180    -2.0512 C.ar    
  29 C29           -3.7169     0.9591    -3.2740 C.ar    
  30 C30           -2.7752     1.9665    -3.4259 C.ar    
  31 C31           -1.9789     2.3327    -2.3581 C.ar    
  32 O32           -4.5050     0.6006    -4.3215 O.3     
  33 C33           -4.3103     1.3036    -5.5503 C.3     
  34 H34            1.4938     2.8385     0.0027 H       
  35 H35            3.8595     2.9339    -0.0181 H       
  36 H36            8.5431    -2.8158    -0.0931 H       
  37 H37           10.9384    -2.1605    -0.1107 H       
  38 H38           11.5123     0.2587    -0.1016 H       
  39 H39            9.8735     2.7034    -1.1006 H       
  40 H40            9.0200     2.8940     0.4497 H       
  41 H41           10.7545     2.4947     0.4318 H       
  42 H42            1.3092    -4.6017     0.9921 H       
  43 H43            0.4447    -4.8556    -0.5430 H       
  44 H44            2.1455    -4.3309    -0.5557 H       
  45 H45           -2.2566    -2.1562    -1.2091 H       
  46 H46           -0.6914    -1.5984    -1.8473 H       
  47 H47           -1.0875    -3.3337    -1.8533 H       
  48 H48           -1.7755     1.9187     0.9528 H       
  49 H49           -0.9771     3.1406    -0.0661 H       
  50 H50           -3.1546     0.1850    -0.0360 H       
  51 H51           -4.5844    -0.4667    -1.9306 H       
  52 H52           -2.6678     2.4671    -4.3768 H       
  53 H53           -1.2489     3.1201    -2.4744 H       
  54 H54           -4.4960     2.3662    -5.3943 H       
  55 H55           -3.2853     1.1603    -5.8924 H       
  56 H56           -5.0010     0.9204    -6.3015 H       
@<TRIPOS>BOND
   1    1    2 1
   2    1    5 1
   3    1   25 1
   4    2    3 2
   5    3    4 1
   6    3    6 1
   7    4    5 2
   8    4   12 1
   9    5   34 1
  10    6    7 2
  11    6    8 am
  12    8   22 1
  13    8   23 1
  14    9   10 1
  15    9   13 1
  16   10   11 2
  17   10   14 1
  18   11   12 1
  19   12   13 2
  20   13   35 1
  21   14   15 1
  22   15   16 ar
  23   15   20 ar
  24   16   17 ar
  25   16   36 1
  26   17   18 ar
  27   17   37 1
  28   18   19 ar
  29   18   38 1
  30   19   20 ar
  31   19   21 1
  32   21   39 1
  33   21   40 1
  34   21   41 1
  35   22   42 1
  36   22   43 1
  37   22   44 1
  38   23   24 1
  39   24   45 1
  40   24   46 1
  41   24   47 1
  42   25   26 1
  43   25   48 1
  44   25   49 1
  45   26   27 ar
  46   26   31 ar
  47   27   28 ar
  48   27   50 1
  49   28   29 ar
  50   28   51 1
  51   29   30 ar
  52   29   32 1
  53   30   31 ar
  54   30   52 1
  55   31   53 1
  56   32   33 1
  57   33   54 1
  58   33   55 1
  59   33   56 1

#	End of record

