#	Name: ASD01913887
#	Creating user name:	WinNT
#	Creation time:	15. 06. 2019 20:02

#	Modifying user name:	WinNT
#	Modification time:	15. 06. 2019 20:02

#	Program:	/corina/corina34_cracker 3.40 0067  02.08.2006

@<TRIPOS>MOLECULE
ASD01913887
  40   43    0    0    0
SMALL
NO_CHARGES


@<TRIPOS>ATOM
   1 C1            -0.0206     1.4273     0.0511 C.ar    
   2 C2            -0.0002    -0.0044     0.0310 C.1     
   3 C3             0.0165    -1.1781     0.0145 C.1     
   4 C4             0.0369    -2.6099    -0.0057 C.ar    
   5 C5            -1.1385    -3.3354    -0.2512 C.ar    
   6 C6             0.1560    -5.3344    -0.0290 C.ar    
   7 N7             1.2497    -4.6215     0.1946 N.ar    
   8 C8             1.2283    -3.3050     0.2131 C.ar    
   9 C9            -1.0680    -4.7140    -0.2610 C.ar    
  10 C10            1.1544     2.1426     0.2964 C.ar    
  11 C11            1.1287     3.5217     0.3141 C.ar    
  12 C12           -1.2145     2.1155    -0.1802 C.ar    
  13 C13           -0.0569     4.1982     0.0902 C.ar    
  14 C14           -1.2261     3.4965    -0.1596 C.ar    
  15 N15            0.2331    -6.7250    -0.0380 N.am    
  16 C16           -0.8147    -7.5613    -0.0328 C.2     
  17 N17           -0.4742    -8.8595    -0.0446 N.am    
  18 C18            0.9854    -8.9637    -0.0599 C.3     
  19 C19            1.4785    -7.5106    -0.0611 C.3     
  20 C20           -1.4098    -9.9868    -0.0417 C.3     
  21 O21           -1.9686    -7.1785    -0.0188 O.2     
  22 C22            1.7271   -10.0607     0.6917 C.3     
  23 C23            1.7118   -10.0510    -0.8397 C.3     
  24 F24           -2.3800     4.1646    -0.3773 F       
  25 H25           -2.0753    -2.8280    -0.4278 H       
  26 H26            2.1406    -2.7577     0.3987 H       
  27 H27           -1.9530    -5.3046    -0.4463 H       
  28 H28            2.0811     1.6166     0.4722 H       
  29 H29            2.0367     4.0748     0.5037 H       
  30 H30           -2.1256     1.5691    -0.3748 H       
  31 H31           -0.0708     5.2780     0.1057 H       
  32 H32            2.0535    -7.3012    -0.9631 H       
  33 H33            2.0721    -7.3060     0.8299 H       
  34 H34           -2.4326    -9.6101    -0.0289 H       
  35 H35           -1.2556   -10.5892    -0.9369 H       
  36 H36           -1.2373   -10.5999     0.8429 H       
  37 H37            2.6590    -9.7897     1.1877 H       
  38 H38            1.1282   -10.8187     1.1965 H       
  39 H39            1.1029   -10.8027    -1.3420 H       
  40 H40            2.6337    -9.7737    -1.3508 H       
@<TRIPOS>BOND
   1    1    2 1
   2    1   10 ar
   3    1   12 ar
   4    2    3 3
   5    3    4 1
   6    4    5 ar
   7    4    8 ar
   8    5    9 ar
   9    5   25 1
  10    6    7 ar
  11    6   15 1
  12    6    9 ar
  13    7    8 ar
  14    8   26 1
  15    9   27 1
  16   10   11 ar
  17   10   28 1
  18   11   13 ar
  19   11   29 1
  20   12   14 ar
  21   12   30 1
  22   13   14 ar
  23   13   31 1
  24   14   24 1
  25   15   16 am
  26   15   19 1
  27   16   17 am
  28   16   21 2
  29   17   18 1
  30   17   20 1
  31   18   19 1
  32   18   22 1
  33   18   23 1
  34   19   32 1
  35   19   33 1
  36   20   34 1
  37   20   35 1
  38   20   36 1
  39   22   23 1
  40   22   37 1
  41   22   38 1
  42   23   39 1
  43   23   40 1

#	End of record

