#	Name: ASD01871001
#	Creating user name:	WinNT
#	Creation time:	15. 06. 2019 19:39

#	Modifying user name:	WinNT
#	Modification time:	15. 06. 2019 19:39

#	Program:	/corina/corina34_cracker 3.40 0067  02.08.2006

@<TRIPOS>MOLECULE
ASD01871001
  39   41    0    0    0
SMALL
NO_CHARGES


@<TRIPOS>ATOM
   1 C1            -0.0168     1.3840     0.0097 C.ar    
   2 C2             0.0021    -0.0041     0.0020 C.ar    
   3 C3             1.2120    -0.6845    -0.0132 C.ar    
   4 C4             2.3993     0.0171    -0.0207 C.ar    
   5 C5             2.3836     1.4108    -0.0131 C.ar    
   6 C6             1.1673     2.0912     0.0021 C.ar    
   7 O7            -1.1661    -0.6981     0.0099 O.3     
   8 C8            -1.0736    -2.1241     0.0013 C.3     
   9 C9             3.6592     2.1686    -0.0207 C.2     
  10 C10            3.7864     3.3754    -0.6920 C.2     
  11 C11            5.0150     3.9431    -0.6033 C.2     
  12 S12            5.9548     2.8703     0.3580 S.3     
  13 N13            4.7207     1.7354     0.6103 N.2     
  14 C14            2.6518     4.0048    -1.4584 C.3     
  15 N15            5.4300     5.1463    -1.1733 N.am    
  16 C16            6.6938     5.5776    -0.9914 C.2     
  17 C17            7.1423     6.8777    -1.6074 C.3     
  18 O18            7.4703     4.9193    -0.3319 O.2     
  19 C19            7.4427     8.0415    -0.6606 C.3     
  20 C20            8.5890     7.3126    -1.3646 C.3     
  21 C21            9.4696     6.3941    -0.5150 C.3     
  22 H22           -0.9596     1.9107     0.0170 H       
  23 H23            1.2236    -1.7645    -0.0187 H       
  24 H24            3.3403    -0.5128    -0.0322 H       
  25 H25            1.1520     3.1710     0.0077 H       
  26 H26           -0.5462    -2.4486    -0.8957 H       
  27 H27           -0.5285    -2.4581     0.8841 H       
  28 H28           -2.0756    -2.5532     0.0089 H       
  29 H29            2.0845     4.6588    -0.7961 H       
  30 H30            3.0526     4.5872    -2.2881 H       
  31 H31            1.9974     3.2237    -1.8455 H       
  32 H32            4.8090     5.6727    -1.7007 H       
  33 H33            6.7001     7.1170    -2.5745 H       
  34 H34            7.1985     9.0464    -1.0050 H       
  35 H35            7.3160     7.8667     0.4078 H       
  36 H36            9.0989     7.8379    -2.1721 H       
  37 H37            9.0312     6.2861     0.4771 H       
  38 H38            9.5387     5.4155    -0.9902 H       
  39 H39           10.4664     6.8262    -0.4267 H       
@<TRIPOS>BOND
   1    1    2 ar
   2    1    6 ar
   3    1   22 1
   4    2    3 ar
   5    2    7 1
   6    3    4 ar
   7    3   23 1
   8    4    5 ar
   9    4   24 1
  10    5    6 ar
  11    5    9 1
  12    6   25 1
  13    7    8 1
  14    8   26 1
  15    8   27 1
  16    8   28 1
  17    9   10 1
  18    9   13 2
  19   10   11 2
  20   10   14 1
  21   11   12 1
  22   11   15 1
  23   12   13 1
  24   14   29 1
  25   14   30 1
  26   14   31 1
  27   15   16 am
  28   15   32 1
  29   16   17 1
  30   16   18 2
  31   17   19 1
  32   17   20 1
  33   17   33 1
  34   19   20 1
  35   19   34 1
  36   19   35 1
  37   20   21 1
  38   20   36 1
  39   21   37 1
  40   21   38 1
  41   21   39 1

#	End of record

