#	Name: ASD05430202
#	Creating user name:	WinNT
#	Creation time:	15. 06. 2019 21:00

#	Modifying user name:	WinNT
#	Modification time:	15. 06. 2019 21:00

#	Program:	/corina/corina34_cracker 3.40 0067  02.08.2006

@<TRIPOS>MOLECULE
ASD05430202
  74   79    0    0    0
SMALL
NO_CHARGES


@<TRIPOS>ATOM
   1 C1             0.3923     0.5725     1.7777 C.ar    
   2 C2             0.4558    -0.7660     1.3918 C.ar    
   3 C3             1.6073    -1.2673     0.7985 C.ar    
   4 C4             2.6921    -0.4443     0.5880 C.ar    
   5 C5             2.6355     0.8994     0.9720 C.ar    
   6 C6             1.4766     1.4039     1.5696 C.ar    
   7 C7             5.3307    -0.1451     1.2549 C.3     
   8 C8             5.0411     1.2781     0.8021 C.2     
   9 C9             3.7936     1.7802     0.7483 C.2     
  10 C10            6.5454    -0.1242     2.1794 C.3     
  11 C11            7.7952     0.3766     1.4602 C.3     
  12 N12            7.5093     1.6598     0.8242 N.pl3   
  13 C13            6.2340     2.0694     0.4247 C.2     
  14 C14           -0.7334     2.4412     2.7237 C.3     
  15 O15           -0.7382     1.0610     2.3535 O.3     
  16 N16           -0.6446    -1.6076     1.6036 N.pl3   
  17 C17           -1.3326    -1.7603     2.7648 C.2     
  18 C18           -1.2337    -2.4277     0.6764 C.2     
  19 C19           -2.2510    -3.0530     1.2990 C.2     
  20 N20           -2.2886    -2.6276     2.5705 N.2     
  21 C21           -3.1880    -4.0542     0.6740 C.3     
  22 C22            8.4158     2.7599     0.4926 C.3     
  23 O23            7.6582     3.5367    -0.4589 O.3     
  24 N24            6.3031     3.1449    -0.2838 N.2     
  25 C25            8.7338     3.5913     1.7370 C.3     
  26 C26            9.6816     4.7317     1.3600 C.3     
  27 C27            9.6810     2.2355    -0.1360 C.ar    
  28 C28           10.3768     1.2051     0.4683 C.ar    
  29 C29           10.1419     2.7814    -1.3196 C.ar    
  30 C30           11.3015     2.3007    -1.8975 C.ar    
  31 C31           12.0021     1.2723    -1.2904 C.ar    
  32 C32           11.5370     0.7230    -0.1075 C.ar    
  33 F33           13.1359     0.8015    -1.8544 F       
  34 S34           10.0586     5.7174     2.8354 S.o2    
  35 O35            8.8646     6.3510     3.2738 O.2     
  36 O36           10.7891     4.9077     3.7464 O.2     
  37 C37           11.1722     6.9832     2.1659 C.3     
  38 C38            6.2586     0.7418     3.4155 C.3     
  39 O39            6.2955    -0.1284     4.5607 O.3     
  40 C40            7.1586    -1.2356     4.2219 C.3     
  41 C41            6.7977    -1.5386     2.7442 C.3     
  42 H42            1.6526    -2.3048     0.5018 H       
  43 H43            3.5863    -0.8368     0.1267 H       
  44 H44            1.4285     2.4409     1.8673 H       
  45 H45            4.4687    -0.5408     1.7920 H       
  46 H46            5.5423    -0.7693     0.3867 H       
  47 H47            3.6422     2.8292     0.5410 H       
  48 H48            8.6039     0.5003     2.1805 H       
  49 H49            8.0922    -0.3470     0.7011 H       
  50 H50            0.0638     2.6212     3.4449 H       
  51 H51           -0.5673     3.0544     1.8380 H       
  52 H52           -1.6931     2.7009     3.1707 H       
  53 H53           -1.1236    -1.2499     3.6933 H       
  54 H54           -0.9385    -2.5491    -0.3554 H       
  55 H55           -2.7799    -5.0578     0.7938 H       
  56 H56           -4.1603    -3.9965     1.1633 H       
  57 H57           -3.3016    -3.8324    -0.3871 H       
  58 H58            7.8108     4.0052     2.1431 H       
  59 H59            9.2081     2.9573     2.4862 H       
  60 H60           10.6046     4.3178     0.9540 H       
  61 H61            9.2073     5.3657     0.6109 H       
  62 H62           10.0138     0.7768     1.3909 H       
  63 H63            9.5953     3.5836    -1.7929 H       
  64 H64           11.6610     2.7269    -2.8224 H       
  65 H65           12.0828    -0.0790     0.3670 H       
  66 H66           10.6541     7.5510     1.3931 H       
  67 H67           11.4804     7.6561     2.9661 H       
  68 H68           12.0514     6.5031     1.7361 H       
  69 H69            7.0211     1.5148     3.5121 H       
  70 H70            5.2728     1.1985     3.3280 H       
  71 H71            8.2059    -0.9465     4.3095 H       
  72 H72            6.9432    -2.0972     4.8539 H       
  73 H73            5.8972    -2.1496     2.6808 H       
  74 H74            7.6301    -2.0201     2.2310 H       
@<TRIPOS>BOND
   1    1    2 ar
   2    1    6 ar
   3    1   15 1
   4    2    3 ar
   5    2   16 1
   6    3    4 ar
   7    3   42 1
   8    4    5 ar
   9    4   43 1
  10    5    6 ar
  11    5    9 1
  12    6   44 1
  13    7    8 1
  14    7   10 1
  15    7   45 1
  16    7   46 1
  17    8    9 2
  18    8   13 1
  19    9   47 1
  20   10   11 1
  21   10   38 1
  22   10   41 1
  23   11   12 1
  24   11   48 1
  25   11   49 1
  26   12   13 1
  27   12   22 1
  28   13   24 2
  29   14   15 1
  30   14   50 1
  31   14   51 1
  32   14   52 1
  33   16   17 1
  34   16   18 1
  35   17   20 2
  36   17   53 1
  37   18   19 2
  38   18   54 1
  39   19   20 1
  40   19   21 1
  41   21   55 1
  42   21   56 1
  43   21   57 1
  44   22   23 1
  45   22   25 1
  46   22   27 1
  47   23   24 1
  48   25   26 1
  49   25   58 1
  50   25   59 1
  51   26   34 1
  52   26   60 1
  53   26   61 1
  54   27   28 ar
  55   27   29 ar
  56   28   32 ar
  57   28   62 1
  58   29   30 ar
  59   29   63 1
  60   30   31 ar
  61   30   64 1
  62   31   32 ar
  63   31   33 1
  64   32   65 1
  65   34   35 2
  66   34   36 2
  67   34   37 1
  68   37   66 1
  69   37   67 1
  70   37   68 1
  71   38   39 1
  72   38   69 1
  73   38   70 1
  74   39   40 1
  75   40   41 1
  76   40   71 1
  77   40   72 1
  78   41   73 1
  79   41   74 1

#	End of record

