#	Name: ASD01814061
#	Creating user name:	WinNT
#	Creation time:	15. 06. 2019 19:31

#	Modifying user name:	WinNT
#	Modification time:	15. 06. 2019 19:31

#	Program:	/corina/corina34_cracker 3.40 0067  02.08.2006

@<TRIPOS>MOLECULE
ASD01814061
  50   54    0    0    0
SMALL
NO_CHARGES


@<TRIPOS>ATOM
   1 C1             7.3400     1.2110    -0.2191 C.ar    
   2 C2             7.2565    -0.1729    -0.2201 C.ar    
   3 C3             6.0317    -0.8059    -0.1600 C.ar    
   4 C4             4.8606    -0.0528    -0.0970 C.ar    
   5 C5             4.9468     1.3499    -0.0955 C.ar    
   6 C6             6.1935     1.9774    -0.1572 C.ar    
   7 N7             3.6308    -0.6740    -0.0371 N.pl3   
   8 C8             2.4780     0.0043     0.0243 C.2     
   9 C9             2.4360     1.3839     0.0318 C.2     
  10 C10            3.7011     2.1343    -0.0284 C.2     
  11 F11            6.2766     3.3259    -0.1554 F       
  12 O12            3.7175     3.3529    -0.0242 O.2     
  13 C13            1.1500     2.0919     0.0987 C.2     
  14 O14            1.1220     3.4397     0.1053 O.3     
  15 O15            0.1113     1.4621     0.1480 O.2     
  16 C16            3.5837    -2.1382    -0.0413 C.3     
  17 C17            3.4395    -2.6321    -1.4578 C.ar    
  18 C18            4.5598    -2.7763    -2.2555 C.ar    
  19 C19            4.4309    -3.2291    -3.5540 C.ar    
  20 C20            3.1750    -3.5397    -4.0580 C.ar    
  21 C21            2.0521    -3.3938    -3.2545 C.ar    
  22 C22            2.1880    -2.9455    -1.9552 C.ar    
  23 N23            3.0410    -3.9990    -5.3754 N.pl3   
  24 F24            5.9677    -2.1553    -0.1628 F       
  25 C25            1.8821    -4.3338    -5.9838 C.2     
  26 C26            2.1830    -4.7283    -7.2547 C.2     
  27 C27            3.5793    -4.6250    -7.4127 C.2     
  28 N28            4.0842    -4.1844    -6.2906 N.2     
  29 C29            1.2151    -5.1840    -8.2841 C.ar    
  30 C30            1.6557    -5.5626    -9.5545 C.ar    
  31 C31            0.7135    -5.9806   -10.4790 C.ar    
  32 C32           -0.6210    -6.0097   -10.1185 C.ar    
  33 N33           -1.0072    -5.6457    -8.9109 N.ar    
  34 C34           -0.1467    -5.2466    -7.9968 C.ar    
  35 H35            8.3063     1.6914    -0.2623 H       
  36 H36            8.1602    -0.7623    -0.2688 H       
  37 H37            1.5500    -0.5464     0.0691 H       
  38 H38            0.2525     3.8605     0.1503 H       
  39 H39            4.5042    -2.5326     0.3891 H       
  40 H40            2.7324    -2.4760     0.5497 H       
  41 H41            5.5364    -2.5343    -1.8630 H       
  42 H42            5.3062    -3.3413    -4.1767 H       
  43 H43            1.0739    -3.6345    -3.6438 H       
  44 H44            1.3149    -2.8322    -1.3296 H       
  45 H45            0.8964    -4.2961    -5.5439 H       
  46 H46            4.1353    -4.8644    -8.3071 H       
  47 H47            2.7048    -5.5297    -9.8092 H       
  48 H48            1.0177    -6.2804   -11.4710 H       
  49 H49           -1.3587    -6.3352   -10.8370 H       
  50 H50           -0.5011    -4.9566    -7.0187 H       
@<TRIPOS>BOND
   1    1    2 ar
   2    1    6 ar
   3    1   35 1
   4    2    3 ar
   5    2   36 1
   6    3    4 ar
   7    3   24 1
   8    4    5 ar
   9    4    7 1
  10    5    6 ar
  11    5   10 1
  12    6   11 1
  13    7    8 1
  14    7   16 1
  15    8    9 2
  16    8   37 1
  17    9   10 1
  18    9   13 1
  19   10   12 2
  20   13   14 1
  21   13   15 2
  22   14   38 1
  23   16   17 1
  24   16   39 1
  25   16   40 1
  26   17   18 ar
  27   17   22 ar
  28   18   19 ar
  29   18   41 1
  30   19   20 ar
  31   19   42 1
  32   20   21 ar
  33   20   23 1
  34   21   22 ar
  35   21   43 1
  36   22   44 1
  37   23   25 1
  38   23   28 1
  39   25   26 2
  40   25   45 1
  41   26   27 1
  42   26   29 1
  43   27   28 2
  44   27   46 1
  45   29   30 ar
  46   29   34 ar
  47   30   31 ar
  48   30   47 1
  49   31   32 ar
  50   31   48 1
  51   32   33 ar
  52   32   49 1
  53   33   34 ar
  54   34   50 1

#	End of record

