#	Name: ASD03540118
#	Creating user name:	WinNT
#	Creation time:	15. 06. 2019 20:42

#	Modifying user name:	WinNT
#	Modification time:	15. 06. 2019 20:42

#	Program:	/corina/corina34_cracker 3.40 0067  02.08.2006

@<TRIPOS>MOLECULE
ASD03540118
  46   49    0    0    0
SMALL
NO_CHARGES


@<TRIPOS>ATOM
   1 C1            -0.0180     1.4744     0.0101 C.2     
   2 C2             0.0021    -0.0041     0.0020 C.ar    
   3 C3             1.2171    -0.6858    -0.0132 C.ar    
   4 C4             1.2272    -2.0787    -0.0203 C.ar    
   5 C5             2.5119    -2.8104    -0.0360 C.2     
   6 C6             0.0206    -2.7829    -0.0121 C.ar    
   7 C7            -1.1799    -2.1012     0.0030 C.ar    
   8 C8            -1.1968    -0.7203     0.0155 C.ar    
   9 O9             1.0263     2.0964     0.0035 O.2     
  10 N10           -1.1942     2.1323     0.0193 N.am    
  11 O11            3.5609    -2.1964    -0.0428 O.2     
  12 N12            2.5199    -4.1581    -0.0429 N.am    
  13 C13            3.7929    -4.8830    -0.0584 C.3     
  14 O14            3.3970    -7.1447     1.0234 O.3     
  15 C15            3.5262    -6.3662    -0.0634 C.2     
  16 C16            3.3768    -7.1350    -1.1571 C.2     
  17 C17            3.1441    -8.4533    -0.7024 C.2     
  18 C18            3.1651    -8.4113     0.6419 C.2     
  19 C19           -1.2141     3.5972     0.0274 C.3     
  20 O20           -6.5319     5.3959     0.3232 O.3     
  21 C21           -6.5045     5.8166     1.7000 C.3     
  22 O22           -5.4520     5.0230     2.2794 O.3     
  23 C23           -4.6011     4.7390     1.2505 C.ar    
  24 C24           -5.2652     4.9683     0.0476 C.ar    
  25 C25           -3.2894     4.2947     1.2394 C.ar    
  26 C26           -2.6415     4.0801     0.0368 C.ar    
  27 C27           -3.3002     4.3081    -1.1567 C.ar    
  28 C28           -4.6101     4.7513    -1.1533 C.ar    
  29 H29            2.1471    -0.1367    -0.0199 H       
  30 H30            0.0269    -3.8628    -0.0180 H       
  31 H31           -2.1098    -2.6503     0.0090 H       
  32 H32           -2.1393    -0.1932     0.0318 H       
  33 H33           -2.0276     1.6360     0.0206 H       
  34 H34            1.6827    -4.6481    -0.0375 H       
  35 H35            4.3545    -4.6118    -0.9524 H       
  36 H36            4.3712    -4.6208     0.8275 H       
  37 H37            3.4249    -6.8078    -2.1852 H       
  38 H38            2.9804    -9.3265    -1.3165 H       
  39 H39            3.0202    -9.2534     1.3025 H       
  40 H40           -0.7010     3.9626     0.9169 H       
  41 H41           -0.7094     3.9723    -0.8630 H       
  42 H42           -6.2675     6.8781     1.7714 H       
  43 H43           -7.4569     5.6024     2.1849 H       
  44 H44           -2.7720     4.1164     2.1705 H       
  45 H45           -2.7910     4.1393    -2.0940 H       
  46 H46           -5.1226     4.9279    -2.0874 H       
@<TRIPOS>BOND
   1    1    2 1
   2    1    9 2
   3    1   10 am
   4    2    3 ar
   5    2    8 ar
   6    3    4 ar
   7    3   29 1
   8    4    5 1
   9    4    6 ar
  10    5   11 2
  11    5   12 am
  12    6    7 ar
  13    6   30 1
  14    7    8 ar
  15    7   31 1
  16    8   32 1
  17   10   19 1
  18   10   33 1
  19   12   13 1
  20   12   34 1
  21   13   15 1
  22   13   35 1
  23   13   36 1
  24   14   15 1
  25   14   18 1
  26   15   16 2
  27   16   17 1
  28   16   37 1
  29   17   18 2
  30   17   38 1
  31   18   39 1
  32   19   26 1
  33   19   40 1
  34   19   41 1
  35   20   21 1
  36   20   24 1
  37   21   22 1
  38   21   42 1
  39   21   43 1
  40   22   23 1
  41   23   24 ar
  42   23   25 ar
  43   24   28 ar
  44   25   26 ar
  45   25   44 1
  46   26   27 ar
  47   27   28 ar
  48   27   45 1
  49   28   46 1

#	End of record

