#	Name: ASD01410489
#	Creating user name:	WinNT
#	Creation time:	15. 06. 2019 19:17

#	Modifying user name:	WinNT
#	Modification time:	15. 06. 2019 19:17

#	Program:	/corina/corina34_cracker 3.40 0067  02.08.2006

@<TRIPOS>MOLECULE
ASD01410489
  68   71    0    0    0
SMALL
NO_CHARGES


@<TRIPOS>ATOM
   1 C1            -0.2167     1.1700     2.4637 C.ar    
   2 C2             0.5577     1.0431     3.6085 C.ar    
   3 C3             1.8496     0.5671     3.5009 C.ar    
   4 N4             2.3522     0.2343     2.3274 N.ar    
   5 C5             1.6455     0.3412     1.2141 C.ar    
   6 C6             0.3392     0.8121     1.2476 C.ar    
   7 O7             2.2020    -0.0125     0.0285 O.3     
   8 C8             3.5110    -0.3802     0.0222 C.ar    
   9 C9             3.8958    -1.5815     0.6056 C.ar    
  10 C10            5.2216    -1.9646     0.6044 C.ar    
  11 C11            6.1818    -1.1506     0.0191 C.ar    
  12 C12            5.7997     0.0637    -0.5717 C.ar    
  13 C13            4.4543     0.4398    -0.5698 C.ar    
  14 N14            7.5201    -1.5376     0.0186 N.am    
  15 C15            7.9660    -2.4203    -0.8971 C.2     
  16 C16            8.4427    -0.9851     1.0135 C.3     
  17 O17            9.1292    -2.7733    -0.8850 O.2     
  18 C18            7.0410    -2.9588    -1.9157 C.ar    
  19 C19            7.3505    -4.1431    -2.5874 C.ar    
  20 C20            6.4830    -4.6410    -3.5368 C.ar    
  21 C21            5.3069    -3.9688    -3.8243 C.ar    
  22 C22            4.9943    -2.7938    -3.1616 C.ar    
  23 C23            5.8511    -2.2886    -2.2064 C.ar    
  24 C24            7.7097     0.0495     1.8697 C.3     
  25 C25           -0.0051     1.4210     4.9544 C.3     
  26 Br26           4.1231    -4.6581    -5.1280 Br      
  27 N27           -0.6494     0.2528     5.5598 N.pl3   
  28 N28           -1.8850    -0.0651     5.3992 N.2     
  29 O29            9.8553    -2.9404     1.1613 O.3     
  30 C30            8.9623    -2.1120     1.9085 C.3     
  31 C31           10.4003    -4.0296     1.9088 C.3     
  32 O32            7.3663     1.1781     1.0633 O.3     
  33 C33            6.6741     2.2089     1.7707 C.3     
  34 N34           -0.0549    -0.5973     6.3198 N.2     
  35 C35           -0.9220    -1.5138     6.6862 C.2     
  36 C36           -2.1297    -1.1626     6.0787 C.2     
  37 C37            6.8117     0.9351    -1.1952 C.2     
  38 O38            7.9607     0.5537    -1.2993 O.2     
  39 O39            6.4628     2.1547    -1.6498 O.3     
  40 C40           -0.4620     0.9322    -0.0231 C.3     
  41 F41           -1.7366     1.4262     0.2742 F       
  42 F42            0.1847     1.8085    -0.9011 F       
  43 F43           -0.5779    -0.3268    -0.6221 F       
  44 H44           -1.2313     1.5355     2.5209 H       
  45 H45            2.4564     0.4665     4.3887 H       
  46 H46            3.1531    -2.2186     1.0628 H       
  47 H47            5.5128    -2.8994     1.0601 H       
  48 H48            4.1525     1.3726    -1.0228 H       
  49 H49            9.2813    -0.5082     0.5060 H       
  50 H50            8.2677    -4.6680    -2.3642 H       
  51 H51            6.7214    -5.5567    -4.0573 H       
  52 H52            4.0755    -2.2742    -3.3903 H       
  53 H53            5.6061    -1.3724    -1.6899 H       
  54 H54            6.8021    -0.3946     2.2786 H       
  55 H55            8.3570     0.3698     2.6861 H       
  56 H56            0.8011     1.7672     5.6011 H       
  57 H57           -0.7391     2.2173     4.8306 H       
  58 H58            9.4904    -1.6847     2.7609 H       
  59 H59            8.1231    -2.7101     2.2636 H       
  60 H60           10.9582    -3.6422     2.7612 H       
  61 H61            9.5909    -4.6676     2.2639 H       
  62 H62           11.0673    -4.6100     1.2713 H       
  63 H63            5.7450     1.8096     2.1774 H       
  64 H64            7.3000     2.5740     2.5850 H       
  65 H65            6.4494     3.0293     1.0892 H       
  66 H66           -0.7379    -2.3660     7.3236 H       
  67 H67           -3.0717    -1.6856     6.1529 H       
  68 H68            7.1610     2.6900    -2.0509 H       
@<TRIPOS>BOND
   1    1    2 ar
   2    1    6 ar
   3    1   44 1
   4    2    3 ar
   5    2   25 1
   6    3    4 ar
   7    3   45 1
   8    4    5 ar
   9    5    6 ar
  10    5    7 1
  11    6   40 1
  12    7    8 1
  13    8    9 ar
  14    8   13 ar
  15    9   10 ar
  16    9   46 1
  17   10   11 ar
  18   10   47 1
  19   11   12 ar
  20   11   14 1
  21   12   13 ar
  22   12   37 1
  23   13   48 1
  24   14   15 am
  25   14   16 1
  26   15   17 2
  27   15   18 1
  28   16   24 1
  29   16   30 1
  30   16   49 1
  31   18   19 ar
  32   18   23 ar
  33   19   20 ar
  34   19   50 1
  35   20   21 ar
  36   20   51 1
  37   21   22 ar
  38   21   26 1
  39   22   23 ar
  40   22   52 1
  41   23   53 1
  42   24   32 1
  43   24   54 1
  44   24   55 1
  45   25   27 1
  46   25   56 1
  47   25   57 1
  48   27   34 1
  49   27   28 1
  50   28   36 2
  51   29   30 1
  52   29   31 1
  53   30   58 1
  54   30   59 1
  55   31   60 1
  56   31   61 1
  57   31   62 1
  58   32   33 1
  59   33   63 1
  60   33   64 1
  61   33   65 1
  62   34   35 2
  63   35   36 1
  64   35   66 1
  65   36   67 1
  66   37   38 2
  67   37   39 1
  68   39   68 1
  69   40   41 1
  70   40   42 1
  71   40   43 1

#	End of record

