#	Name: ASD01914496
#	Creating user name:	WinNT
#	Creation time:	15. 06. 2019 20:03

#	Modifying user name:	WinNT
#	Modification time:	15. 06. 2019 20:03

#	Program:	/corina/corina34_cracker 3.40 0067  02.08.2006

@<TRIPOS>MOLECULE
ASD01914496
  54   58    0    0    0
SMALL
NO_CHARGES


@<TRIPOS>ATOM
   1 C1            -0.0158     1.3116     0.0093 C.ar    
   2 N2             0.0021    -0.0041     0.0020 N.ar    
   3 C3             1.1550    -0.6685    -0.0125 C.ar    
   4 C4             2.3492     0.0531    -0.0200 C.ar    
   5 C5             2.2795     1.4390    -0.0119 C.ar    
   6 N6             1.0941     2.0240     0.0025 N.ar    
   7 C7             1.1703    -2.1530    -0.0202 C.2     
   8 O8             2.2285    -2.7494    -0.0335 O.2     
   9 N9             0.0102    -2.8389    -0.0124 N.am    
  10 C10            0.0253    -4.3038    -0.0199 C.3     
  11 C11           -1.4118    -4.8288    -0.0086 C.3     
  12 C12           -1.3959    -6.3587    -0.0164 C.3     
  13 C13           -0.6574    -6.8675     1.2231 C.3     
  14 C14            0.7797    -6.3425     1.2118 C.3     
  15 C15            1.4940    -6.8387    -0.0469 C.3     
  16 C16            0.7554    -6.3299    -1.2865 C.3     
  17 C17            0.7396    -4.8000    -1.2786 C.3     
  18 C18           -0.6816    -6.8549    -1.2752 C.3     
  19 C19            0.7639    -4.8126     1.2197 C.3     
  20 N20           -2.7720    -6.8613    -0.0056 N.am    
  21 C21           -3.0045    -8.1889    -0.0100 C.2     
  22 O22           -2.0727    -8.9690    -0.0230 O.2     
  23 C23           -4.3951    -8.6968     0.0009 C.ar    
  24 C24           -4.6283   -10.0710    -0.0037 C.ar    
  25 C25           -5.9337   -10.5325     0.0071 C.ar    
  26 C26           -6.9648    -9.6019     0.0223 C.ar    
  27 C27           -6.6579    -8.2475     0.0261 C.ar    
  28 N28           -5.4083    -7.8393     0.0206 N.ar    
  29 F29           -8.2526   -10.0101     0.0328 F       
  30 C30           -1.3431     2.0252     0.0193 C.3     
  31 F31           -1.5862     2.5398     1.2974 F       
  32 F32           -1.3165     3.0725    -0.9078 F       
  33 F33           -2.3587     1.1257    -0.3222 F       
  34 H34            3.3028    -0.4537    -0.0315 H       
  35 H35            3.1821     2.0320    -0.0170 H       
  36 H36           -0.8348    -2.3627    -0.0017 H       
  37 H37           -1.9206    -4.4753     0.8882 H       
  38 H38           -1.9379    -4.4663    -0.8917 H       
  39 H39           -1.1662    -6.5140     2.1199 H       
  40 H40           -0.6461    -7.9574     1.2175 H       
  41 H41            1.3059    -6.7050     2.0949 H       
  42 H42            2.5178    -6.4647    -0.0550 H       
  43 H43            1.5053    -7.9286    -0.0525 H       
  44 H44            1.2643    -6.6834    -2.1833 H       
  45 H45            0.2134    -4.4376    -2.1617 H       
  46 H46            1.7634    -4.4261    -1.2867 H       
  47 H47           -0.6704    -7.9448    -1.2808 H       
  48 H48           -1.2078    -6.4924    -2.1583 H       
  49 H49            1.7877    -4.4386     1.2116 H       
  50 H50            0.2550    -4.4591     2.1165 H       
  51 H51           -3.5157    -6.2387     0.0048 H       
  52 H52           -3.8020   -10.7663    -0.0160 H       
  53 H53           -6.1453   -11.5915     0.0035 H       
  54 H54           -7.4562    -7.5201     0.0375 H       
@<TRIPOS>BOND
   1    1    2 ar
   2    1    6 ar
   3    1   30 1
   4    2    3 ar
   5    3    4 ar
   6    3    7 1
   7    4    5 ar
   8    4   34 1
   9    5    6 ar
  10    5   35 1
  11    7    8 2
  12    7    9 am
  13    9   10 1
  14    9   36 1
  15   10   11 1
  16   10   17 1
  17   10   19 1
  18   11   12 1
  19   11   37 1
  20   11   38 1
  21   12   13 1
  22   12   18 1
  23   12   20 1
  24   13   14 1
  25   13   39 1
  26   13   40 1
  27   14   15 1
  28   14   19 1
  29   14   41 1
  30   15   16 1
  31   15   42 1
  32   15   43 1
  33   16   17 1
  34   16   18 1
  35   16   44 1
  36   17   45 1
  37   17   46 1
  38   18   47 1
  39   18   48 1
  40   19   49 1
  41   19   50 1
  42   20   21 am
  43   20   51 1
  44   21   22 2
  45   21   23 1
  46   23   24 ar
  47   23   28 ar
  48   24   25 ar
  49   24   52 1
  50   25   26 ar
  51   25   53 1
  52   26   27 ar
  53   26   29 1
  54   27   28 ar
  55   27   54 1
  56   30   31 1
  57   30   32 1
  58   30   33 1

#	End of record

