#	Name: ASD04882105
#	Creating user name:	WinNT
#	Creation time:	15. 06. 2019 20:54

#	Modifying user name:	WinNT
#	Modification time:	15. 06. 2019 20:54

#	Program:	/corina/corina34_cracker 3.40 0067  02.08.2006

@<TRIPOS>MOLECULE
ASD04882105
  84   88    0    0    0
SMALL
NO_CHARGES


@<TRIPOS>ATOM
   1 C1             2.1836     1.8472    -0.8016 C.ar    
   2 C2             2.2254     0.4700    -0.7106 C.ar    
   3 C3             1.0472    -0.2507    -0.5603 C.ar    
   4 C4            -0.1692     0.4172    -0.5023 C.ar    
   5 C5            -0.2038     1.7949    -0.5939 C.ar    
   6 C6             0.9706     2.5091    -0.7434 C.ar    
   7 N7             1.0858    -1.6439    -0.4684 N.3     
   8 C8             0.6791    -2.0949     0.8698 C.3     
   9 C9             2.4193    -2.1576    -0.8114 C.3     
  10 C10            2.3983    -3.6875    -0.7761 C.3     
  11 N11            1.9916    -4.1385     0.5621 N.3     
  12 C12            0.6581    -3.6248     0.9052 C.3     
  13 C13            2.0301    -5.5275     0.6538 C.ar    
  14 C14            1.2421    -6.3008    -0.1904 C.ar    
  15 C15            2.8657    -6.1423     1.5910 C.ar    
  16 C16            2.9040    -7.5205     1.6814 C.ar    
  17 C17            2.1064    -8.2960     0.8346 C.ar    
  18 C18            1.2774    -7.6752    -0.1034 C.ar    
  19 N19            3.6638    -5.3616     2.4374 N.am    
  20 C20            3.9247    -5.7792     3.6920 C.2     
  21 C21            4.6631    -4.9150     4.6115 C.2     
  22 O22            3.5455    -6.8764     4.0598 O.2     
  23 C23            2.1444    -9.7679     0.9272 C.2     
  24 O24            2.8698   -10.3074     1.7404 O.2     
  25 N25            1.3751   -10.5146     0.1104 N.am    
  26 S26            5.2839    -3.3058     4.2515 S.3     
  27 C27            1.4128   -11.9762     0.2024 C.3     
  28 C28            0.4537   -12.5769    -0.8273 C.3     
  29 C29            0.4931   -14.1034    -0.7313 C.3     
  30 N30           -0.4252   -14.6786    -1.7172 N.am    
  31 C31           -0.0812   -15.0027    -2.9755 C.2     
  32 C32           -1.8374   -14.9808    -1.4559 C.3     
  33 C33           -2.4887   -15.1417    -2.8474 C.3     
  34 C34           -1.2776   -15.5603    -3.7148 C.3     
  35 O35            1.0269   -14.8672    -3.4495 O.2     
  36 C36            5.9166    -3.1820     5.8344 C.2     
  37 N37            5.6591    -4.2623     6.5145 N.2     
  38 C38            4.9902    -5.2086     5.9061 C.2     
  39 C39           -1.4498    -0.3605    -0.3399 C.3     
  40 N40            6.6038    -2.0913     6.3227 N.pl3   
  41 C41            6.8356    -0.9272     5.4641 C.3     
  42 C42            7.6148     0.1342     6.2434 C.3     
  43 C43            4.6221    -6.5103     6.5703 C.3     
  44 H44            3.0995     2.4084    -0.9139 H       
  45 H45            3.1729    -0.0463    -0.7564 H       
  46 H46           -1.1493     2.3149    -0.5489 H       
  47 H47            0.9407     3.5864    -0.8145 H       
  48 H48            1.3883    -1.7237     1.6097 H       
  49 H49           -0.3162    -1.7122     1.0956 H       
  50 H50            2.6926    -1.8207    -1.8114 H       
  51 H51            3.1482    -1.7871    -0.0906 H       
  52 H52            1.6891    -4.0587    -1.5160 H       
  53 H53            3.3936    -4.0702    -1.0019 H       
  54 H54            0.3848    -3.9618     1.9051 H       
  55 H55           -0.0708    -3.9953     0.1844 H       
  56 H56            0.6004    -5.8231    -0.9159 H       
  57 H57            3.5490    -7.9977     2.4044 H       
  58 H58            0.6608    -8.2733    -0.7581 H       
  59 H59            4.0286    -4.5205     2.1205 H       
  60 H60            0.7964   -10.0842    -0.5383 H       
  61 H61            2.4256   -12.3267     0.0034 H       
  62 H62            1.1114   -12.2852     1.2033 H       
  63 H63           -0.5590   -12.2264    -0.6283 H       
  64 H64            0.7551   -12.2679    -1.8282 H       
  65 H65            1.5059   -14.4539    -0.9302 H       
  66 H66            0.1918   -14.4124     0.2696 H       
  67 H67           -1.9262   -15.9072    -0.8885 H       
  68 H68           -2.3049   -14.1590    -0.9134 H       
  69 H69           -3.2469   -15.9247    -2.8351 H       
  70 H70           -2.9107   -14.1976    -3.1921 H       
  71 H71           -1.3505   -15.1205    -4.7094 H       
  72 H72           -1.2127   -16.6464    -3.7806 H       
  73 H73           -1.6363    -0.5362     0.7196 H       
  74 H74           -2.2767     0.2084    -0.7649 H       
  75 H75           -1.3626    -1.3161    -0.8568 H       
  76 H76            6.9338    -2.0947     7.2349 H       
  77 H77            7.4100    -1.2300     4.5887 H       
  78 H78            5.8784    -0.5143     5.1456 H       
  79 H79            7.7873     1.0003     5.6046 H       
  80 H80            7.0403     0.4370     7.1188 H       
  81 H81            8.5720    -0.2787     6.5619 H       
  82 H82            3.6512    -6.4090     7.0553 H       
  83 H83            4.5730    -7.2997     5.8203 H       
  84 H84            5.3759    -6.7638     7.3157 H       
@<TRIPOS>BOND
   1    1    2 ar
   2    1    6 ar
   3    1   44 1
   4    2    3 ar
   5    2   45 1
   6    3    4 ar
   7    3    7 1
   8    4    5 ar
   9    4   39 1
  10    5    6 ar
  11    5   46 1
  12    6   47 1
  13    7    8 1
  14    7    9 1
  15    8   12 1
  16    8   48 1
  17    8   49 1
  18    9   10 1
  19    9   50 1
  20    9   51 1
  21   10   11 1
  22   10   52 1
  23   10   53 1
  24   11   12 1
  25   11   13 1
  26   12   54 1
  27   12   55 1
  28   13   14 ar
  29   13   15 ar
  30   14   18 ar
  31   14   56 1
  32   15   16 ar
  33   15   19 1
  34   16   17 ar
  35   16   57 1
  36   17   18 ar
  37   17   23 1
  38   18   58 1
  39   19   20 am
  40   19   59 1
  41   20   21 1
  42   20   22 2
  43   21   26 1
  44   21   38 2
  45   23   24 2
  46   23   25 am
  47   25   27 1
  48   25   60 1
  49   26   36 1
  50   27   28 1
  51   27   61 1
  52   27   62 1
  53   28   29 1
  54   28   63 1
  55   28   64 1
  56   29   30 1
  57   29   65 1
  58   29   66 1
  59   30   31 am
  60   30   32 1
  61   31   35 2
  62   31   34 1
  63   32   33 1
  64   32   67 1
  65   32   68 1
  66   33   34 1
  67   33   69 1
  68   33   70 1
  69   34   71 1
  70   34   72 1
  71   36   37 2
  72   36   40 1
  73   37   38 1
  74   38   43 1
  75   39   73 1
  76   39   74 1
  77   39   75 1
  78   40   41 1
  79   40   76 1
  80   41   42 1
  81   41   77 1
  82   41   78 1
  83   42   79 1
  84   42   80 1
  85   42   81 1
  86   43   82 1
  87   43   83 1
  88   43   84 1

#	End of record

