#	Name: ASD03330341
#	Creating user name:	WinNT
#	Creation time:	15. 06. 2019 20:37

#	Modifying user name:	WinNT
#	Modification time:	15. 06. 2019 20:37

#	Program:	/corina/corina34_cracker 3.40 0067  02.08.2006

@<TRIPOS>MOLECULE
ASD03330341
  51   55    0    0    0
SMALL
NO_CHARGES


@<TRIPOS>ATOM
   1 C1            -0.1683     1.6113    -0.2622 C.3     
   2 N2            -0.2153     0.1416    -0.2858 N.am    
   3 C3             0.4156    -0.5544    -1.4236 C.3     
   4 C4             1.7334     0.1333    -1.6825 C.2     
   5 N5             2.1041     1.3121    -1.1092 N.pl3   
   6 C6             1.2903     2.0707    -0.1567 C.3     
   7 C7             2.7501    -0.2616    -2.4904 C.2     
   8 N8             3.7235     0.6735    -2.4107 N.2     
   9 C9             3.3424     1.6214    -1.5856 C.2     
  10 C10            4.1268     2.8253    -1.2328 C.ar    
  11 C11            5.2282     3.1949    -2.0053 C.ar    
  12 C12            2.7867    -1.4879    -3.3064 C.2     
  13 O13            1.8433    -2.2555    -3.2931 O.2     
  14 C14            3.9490    -2.9743    -4.7543 C.ar    
  15 N15            3.8654    -1.7589    -4.0675 N.am    
  16 C16           -0.8166    -0.5492     0.7030 C.2     
  17 O17           -0.8450    -1.7611     0.6656 O.2     
  18 C18            5.9556     4.3187    -1.6711 C.ar    
  19 C19            5.5948     5.0784    -0.5726 C.ar    
  20 C20            4.5037     4.7172     0.1974 C.ar    
  21 C21            3.7646     3.5989    -0.1297 C.ar    
  22 C22            4.5588    -3.0286    -6.0011 C.ar    
  23 C23           -1.4537     0.1842     1.8551 C.3     
  24 C24           -2.1202    -0.6566     2.9458 C.3     
  25 C25           -0.7936     0.0511     3.2289 C.3     
  26 C26            4.6401    -4.2305    -6.6765 C.ar    
  27 C27            4.1154    -5.3791    -6.1128 C.ar    
  28 C28            3.5076    -5.3284    -4.8717 C.ar    
  29 C29            3.4277    -4.1307    -4.1887 C.ar    
  30 H30           -0.6080     2.0041    -1.1790 H       
  31 H31           -0.7287     1.9794     0.5972 H       
  32 H32            0.5852    -1.6013    -1.1718 H       
  33 H33           -0.2220    -0.4810    -2.3046 H       
  34 H34            1.3549     3.1338    -0.3882 H       
  35 H35            1.6552     1.8946     0.8552 H       
  36 H36            5.5110     2.6025    -2.8629 H       
  37 H37            4.5838    -1.1111    -4.1389 H       
  38 H38            6.8086     4.6057    -2.2680 H       
  39 H39            6.1676     5.9570    -0.3148 H       
  40 H40            4.2271     5.3143     1.0538 H       
  41 H41            2.9131     3.3179     0.4722 H       
  42 H42            4.9685    -2.1319    -6.4420 H       
  43 H43           -1.9119     1.1416     1.6071 H       
  44 H44           -3.0167    -0.2521     3.4157 H       
  45 H45           -2.0980    -1.7402     2.8301 H       
  46 H46            0.1015    -0.5670     3.2995 H       
  47 H47           -0.8173     0.9211     3.8851 H       
  48 H48            5.1138    -4.2734    -7.6461 H       
  49 H49            4.1800    -6.3176    -6.6433 H       
  50 H50            3.0985    -6.2271    -4.4344 H       
  51 H51            2.9529    -4.0918    -3.2194 H       
@<TRIPOS>BOND
   1    1    2 1
   2    1    6 1
   3    1   30 1
   4    1   31 1
   5    2    3 1
   6    2   16 am
   7    3    4 1
   8    3   32 1
   9    3   33 1
  10    4    5 1
  11    4    7 2
  12    5    6 1
  13    5    9 1
  14    6   34 1
  15    6   35 1
  16    7    8 1
  17    7   12 1
  18    8    9 2
  19    9   10 1
  20   10   11 ar
  21   10   21 ar
  22   11   18 ar
  23   11   36 1
  24   12   13 2
  25   12   15 am
  26   14   22 ar
  27   14   15 1
  28   14   29 ar
  29   15   37 1
  30   16   17 2
  31   16   23 1
  32   18   19 ar
  33   18   38 1
  34   19   20 ar
  35   19   39 1
  36   20   21 ar
  37   20   40 1
  38   21   41 1
  39   22   26 ar
  40   22   42 1
  41   23   24 1
  42   23   25 1
  43   23   43 1
  44   24   25 1
  45   24   44 1
  46   24   45 1
  47   25   46 1
  48   25   47 1
  49   26   27 ar
  50   26   48 1
  51   27   28 ar
  52   27   49 1
  53   28   29 ar
  54   28   50 1
  55   29   51 1

#	End of record

