#	Name: ASD01816502
#	Creating user name:	WinNT
#	Creation time:	15. 06. 2019 19:35

#	Modifying user name:	WinNT
#	Modification time:	15. 06. 2019 19:35

#	Program:	/corina/corina34_cracker 3.40 0067  02.08.2006

@<TRIPOS>MOLECULE
ASD01816502
  59   64    0    0    0
SMALL
NO_CHARGES


@<TRIPOS>ATOM
   1 C1            -0.0534     1.4855    -0.1053 C.ar    
   2 C2            -0.0554     0.1003    -0.1326 C.ar    
   3 C3             1.1305    -0.6044    -0.1438 C.ar    
   4 C4             2.3440     0.0740    -0.1272 C.ar    
   5 C5             2.3426     1.4786    -0.0995 C.ar    
   6 C6             1.1402     2.1778    -0.0888 C.ar    
   7 N7             3.5374    -0.6272    -0.1373 N.pl3   
   8 C8             4.7384    -0.0267    -0.1222 C.2     
   9 C9             4.8618     1.3402    -0.0954 C.2     
  10 C10            3.6413     2.1784    -0.0822 C.2     
  11 C11            5.9734     2.2860    -0.0747 C.2     
  12 N12            5.4193     3.5174    -0.0529 N.am    
  13 N13            4.0254     3.4224    -0.0578 N.2     
  14 C14            6.1394     4.7186    -0.0283 C.ar    
  15 O15            7.1639     2.0179    -0.0768 O.2     
  16 C16            3.4880    -2.0911    -0.1653 C.3     
  17 C17            3.4749    -2.5660    -1.5954 C.ar    
  18 C18            4.6665    -2.8239    -2.2478 C.ar    
  19 C19            4.6577    -3.2588    -3.5587 C.ar    
  20 C20            3.4508    -3.4375    -4.2212 C.ar    
  21 C21            2.2560    -3.1781    -3.5634 C.ar    
  22 C22            2.2710    -2.7484    -2.2509 C.ar    
  23 N23            3.4386    -3.8784    -5.5519 N.pl3   
  24 C24            2.3390    -4.0922    -6.3094 C.2     
  25 C25            2.7534    -4.5104    -7.5278 C.2     
  26 C26            4.1519    -4.5540    -7.5157 C.2     
  27 N27            4.5635    -4.1697    -6.3342 N.2     
  28 C28            7.0899     4.9799    -1.0040 C.ar    
  29 C29            7.7990     6.1662    -0.9779 C.ar    
  30 C30            7.5644     7.0951     0.0192 C.ar    
  31 C31            6.6194     6.8433     0.9960 C.ar    
  32 C32            5.8986     5.6584     0.9745 C.ar    
  33 N33            4.9411     5.4014     1.9620 N.am    
  34 C34            4.3424     6.4249     2.6028 C.2     
  35 O35            4.6858     7.5693     2.3749 O.2     
  36 C36            3.2741     6.1579     3.5775 C.2     
  37 C37            2.6832     7.1680     4.2099 C.2     
  38 H38           -0.9889     2.0252    -0.1013 H       
  39 H39           -0.9945    -0.4330    -0.1449 H       
  40 H40            1.1162    -1.6841    -0.1651 H       
  41 H41            1.1407     3.2576    -0.0679 H       
  42 H42            5.6306    -0.6352    -0.1311 H       
  43 H43            4.3639    -2.4940     0.3433 H       
  44 H44            2.5849    -2.4339     0.3397 H       
  45 H45            5.6051    -2.6848    -1.7319 H       
  46 H46            5.5888    -3.4594    -4.0679 H       
  47 H47            1.3156    -3.3158    -4.0764 H       
  48 H48            1.3419    -2.5465    -1.7386 H       
  49 H49            1.3142    -3.9545    -5.9978 H       
  50 H50            2.1171    -4.7655    -8.3623 H       
  51 H51            4.7831    -4.8494    -8.3407 H       
  52 H52            7.2763     4.2564    -1.7838 H       
  53 H53            8.5387     6.3680    -1.7384 H       
  54 H54            8.1215     8.0202     0.0349 H       
  55 H55            6.4391     7.5710     1.7734 H       
  56 H56            4.7083     4.4867     2.1854 H       
  57 H57            2.9692     5.1418     3.7798 H       
  58 H58            2.9881     8.1842     4.0076 H       
  59 H59            1.8986     6.9720     4.9258 H       
@<TRIPOS>BOND
   1    1    2 ar
   2    1    6 ar
   3    1   38 1
   4    2    3 ar
   5    2   39 1
   6    3    4 ar
   7    3   40 1
   8    4    5 ar
   9    4    7 1
  10    5    6 ar
  11    5   10 1
  12    6   41 1
  13    7    8 1
  14    7   16 1
  15    8    9 2
  16    8   42 1
  17    9   10 1
  18    9   11 1
  19   10   13 2
  20   11   12 am
  21   11   15 2
  22   12   13 1
  23   12   14 1
  24   14   28 ar
  25   14   32 ar
  26   16   17 1
  27   16   43 1
  28   16   44 1
  29   17   18 ar
  30   17   22 ar
  31   18   19 ar
  32   18   45 1
  33   19   20 ar
  34   19   46 1
  35   20   21 ar
  36   20   23 1
  37   21   22 ar
  38   21   47 1
  39   22   48 1
  40   23   24 1
  41   23   27 1
  42   24   25 2
  43   24   49 1
  44   25   26 1
  45   25   50 1
  46   26   27 2
  47   26   51 1
  48   28   29 ar
  49   28   52 1
  50   29   30 ar
  51   29   53 1
  52   30   31 ar
  53   30   54 1
  54   31   32 ar
  55   31   55 1
  56   32   33 1
  57   33   34 am
  58   33   56 1
  59   34   35 2
  60   34   36 1
  61   36   37 2
  62   36   57 1
  63   37   58 1
  64   37   59 1

#	End of record

