#	Name: ASD03240860
#	Creating user name:	WinNT
#	Creation time:	15. 06. 2019 20:35

#	Modifying user name:	WinNT
#	Modification time:	15. 06. 2019 20:35

#	Program:	/corina/corina34_cracker 3.40 0067  02.08.2006

@<TRIPOS>MOLECULE
ASD03240860
  88   95    0    0    0
SMALL
NO_CHARGES


@<TRIPOS>ATOM
   1 C1            -0.0144     1.2086     0.0087 C.2     
   2 O2             0.1257     0.0425     0.3111 O.2     
   3 N3             1.0578     1.9488    -0.3363 N.am    
   4 C4             2.4174     1.3946    -0.2494 C.3     
   5 C5             3.1236     1.6252    -1.5897 C.3     
   6 N6             3.0551     3.0510    -1.9367 N.3     
   7 C7             1.6653     3.4867    -2.1278 C.3     
   8 C8             0.8988     3.3303    -0.8154 C.3     
   9 C9             3.8229     3.3272    -3.0620 C.ar    
  10 C10            3.8872     4.6285    -3.5504 C.ar    
  11 C11            4.6549     4.8892    -4.6707 C.ar    
  12 C12            5.3355     3.8359    -5.2676 C.ar    
  13 C13            5.2268     2.5694    -4.7298 C.ar    
  14 N14            4.4910     2.3508    -3.6563 N.ar    
  15 C15            6.1836     4.0733    -6.4905 C.3     
  16 F16            7.4900     4.3848    -6.0987 F       
  17 F17            6.1964     2.9187    -7.2804 F       
  18 F18            5.6517     5.1367    -7.2276 F       
  19 N19           -3.9954     2.0722     1.2296 N.3     
  20 C20           -3.8394     1.3575    -0.0436 C.3     
  21 C21           -2.4460     0.7281    -0.1095 C.3     
  22 C22           -1.3881     1.8282     0.0126 C.3     
  23 C23           -1.6027     2.5885     1.3243 C.3     
  24 C24           -3.0206     3.1640     1.3486 C.3     
  25 C25           -5.3676     2.5722     1.3880 C.3     
  26 C26           -5.5584     3.0788     2.7944 C.ar    
  27 C27           -5.2876     4.4024     3.0925 C.ar    
  28 C28           -5.4608     4.8724     4.3781 C.ar    
  29 C29           -5.9099     4.0100     5.3783 C.ar    
  30 C30           -6.1812     2.6766     5.0715 C.ar    
  31 C31           -6.0091     2.2199     3.7809 C.ar    
  32 N32           -4.5325     6.8581     8.9592 N.pl3   
  33 C33           -4.6878     7.3312    10.2341 C.2     
  34 N34           -5.6690     6.8926    11.0424 N.2     
  35 C35           -6.5324     5.9883    10.6579 C.2     
  36 C36           -6.4292     5.4364     9.3087 C.ar    
  37 C37           -7.3222     4.4666     8.8403 C.ar    
  38 C38           -7.1511     3.9962     7.5426 C.ar    
  39 C39           -6.0974     4.5079     6.7603 C.ar    
  40 N40           -5.2710     5.4259     7.2384 N.ar    
  41 C41           -5.3979     5.9011     8.4652 C.ar    
  42 C42           -3.6834     8.2675    10.4384 C.2     
  43 C43           -2.9326     8.3436     9.2719 C.2     
  44 N44           -3.4280     7.5059     8.3928 N.2     
  45 C45           -8.0654     2.9680     6.9903 C.ar    
  46 C46           -8.3299     1.8059     7.7133 C.ar    
  47 C47           -9.1821     0.8525     7.1943 C.ar    
  48 C48           -9.7734     1.0484     5.9592 C.ar    
  49 C49           -9.5143     2.1994     5.2370 C.ar    
  50 C50           -8.6683     3.1623     5.7485 C.ar    
  51 C51           -1.7399     9.2386     9.0544 C.3     
  52 H52            2.9677     1.8975     0.5458 H       
  53 H53            2.3645     0.3257    -0.0426 H       
  54 H54            4.1670     1.3204    -1.5082 H       
  55 H55            2.6323     1.0380    -2.3655 H       
  56 H56            1.6510     4.5319    -2.4365 H       
  57 H57            1.1942     2.8736    -2.8961 H       
  58 H58           -0.1576     3.5406    -0.9825 H       
  59 H59            1.3004     4.0229    -0.0756 H       
  60 H60            3.3445     5.4240    -3.0614 H       
  61 H61            4.7234     5.8892    -5.0727 H       
  62 H62            5.7544     1.7475    -5.1908 H       
  63 H63           -4.5951     0.5752    -0.1159 H       
  64 H64           -3.9612     2.0574    -0.8703 H       
  65 H65           -2.3285     0.0178     0.7089 H       
  66 H66           -2.3250     0.2108    -1.0612 H       
  67 H67           -1.4797     2.5165    -0.8276 H       
  68 H68           -1.4719     1.9075     2.1653 H       
  69 H69           -0.8791     3.4005     1.3969 H       
  70 H70           -3.1462     3.8554     0.5154 H       
  71 H71           -3.1814     3.6939     2.2874 H       
  72 H72           -5.5421     3.3844     0.6824 H       
  73 H73           -6.0733     1.7644     1.1940 H       
  74 H74           -4.9396     5.0691     2.3173 H       
  75 H75           -5.2488     5.9058     4.6097 H       
  76 H76           -6.5288     2.0040     5.8417 H       
  77 H77           -6.2227     1.1887     3.5412 H       
  78 H78           -7.3103     5.6539    11.3282 H       
  79 H79           -8.1196     4.0950     9.4668 H       
  80 H80           -3.5159     8.8352    11.3418 H       
  81 H81           -7.8685     1.6518     8.6775 H       
  82 H82           -9.3875    -0.0484     7.7534 H       
  83 H83          -10.4397     0.2996     5.5570 H       
  84 H84           -9.9782     2.3467     4.2729 H       
  85 H85           -8.4702     4.0626     5.1859 H       
  86 H86           -0.8324     8.7135     9.3525 H       
  87 H87           -1.6745     9.5070     7.9999 H       
  88 H88           -1.8499    10.1427     9.6532 H       
@<TRIPOS>BOND
   1    1    2 2
   2    1    3 am
   3    1   22 1
   4    3    4 1
   5    3    8 1
   6    4    5 1
   7    4   52 1
   8    4   53 1
   9    5    6 1
  10    5   54 1
  11    5   55 1
  12    6    7 1
  13    6    9 1
  14    7    8 1
  15    7   56 1
  16    7   57 1
  17    8   58 1
  18    8   59 1
  19    9   10 ar
  20    9   14 ar
  21   10   11 ar
  22   10   60 1
  23   11   12 ar
  24   11   61 1
  25   12   13 ar
  26   12   15 1
  27   13   14 ar
  28   13   62 1
  29   15   16 1
  30   15   17 1
  31   15   18 1
  32   19   20 1
  33   19   24 1
  34   19   25 1
  35   20   21 1
  36   20   63 1
  37   20   64 1
  38   21   22 1
  39   21   65 1
  40   21   66 1
  41   22   23 1
  42   22   67 1
  43   23   24 1
  44   23   68 1
  45   23   69 1
  46   24   70 1
  47   24   71 1
  48   25   26 1
  49   25   72 1
  50   25   73 1
  51   26   27 ar
  52   26   31 ar
  53   27   28 ar
  54   27   74 1
  55   28   29 ar
  56   28   75 1
  57   29   30 ar
  58   29   39 1
  59   30   31 ar
  60   30   76 1
  61   31   77 1
  62   32   33 1
  63   32   41 1
  64   32   44 1
  65   33   34 1
  66   33   42 2
  67   34   35 2
  68   35   36 1
  69   35   78 1
  70   36   37 ar
  71   36   41 ar
  72   37   38 ar
  73   37   79 1
  74   38   39 ar
  75   38   45 1
  76   39   40 ar
  77   40   41 ar
  78   42   43 1
  79   42   80 1
  80   43   44 2
  81   43   51 1
  82   45   46 ar
  83   45   50 ar
  84   46   47 ar
  85   46   81 1
  86   47   48 ar
  87   47   82 1
  88   48   49 ar
  89   48   83 1
  90   49   50 ar
  91   49   84 1
  92   50   85 1
  93   51   86 1
  94   51   87 1
  95   51   88 1

#	End of record

