#	Name: ASD04590511
#	Creating user name:	WinNT
#	Creation time:	15. 06. 2019 20:50

#	Modifying user name:	WinNT
#	Modification time:	15. 06. 2019 20:50

#	Program:	/corina/corina34_cracker 3.40 0067  02.08.2006

@<TRIPOS>MOLECULE
ASD04590511
  62   67    0    0    0
SMALL
NO_CHARGES


@<TRIPOS>ATOM
   1 C1            -0.0167     1.3834     0.0096 C.ar    
   2 C2             0.0021    -0.0041     0.0020 C.ar    
   3 C3             2.3948     0.0191    -0.0202 C.ar    
   4 C4             2.3756     1.4249    -0.0129 C.ar    
   5 C5             1.1624     2.0987     0.0022 C.ar    
   6 N6             3.6952    -0.3637    -0.0348 N.2     
   7 C7             4.4664     0.6967    -0.0369 C.2     
   8 N8             3.6970     1.8290    -0.0238 N.pl3   
   9 C9             5.9437     0.6731    -0.0507 C.2     
  10 C10            6.7566    -0.4840    -0.0640 C.2     
  11 C11            8.0505    -0.0800    -0.0739 C.2     
  12 N12            8.0626     1.2789    -0.0671 N.pl3   
  13 N13            6.7358     1.7272    -0.0583 N.2     
  14 N14            6.3044    -1.8133    -0.0662 N.am    
  15 C15            7.1924    -2.8271    -0.0796 C.2     
  16 O16            8.3849    -2.5907    -0.0898 O.2     
  17 C17            1.1863    -0.6848    -0.0125 C.ar    
  18 C18            6.7163    -4.2268    -0.0819 C.ar    
  19 C19            5.3472    -4.5005    -0.0703 C.ar    
  20 C20           -1.2971    -0.7677     0.0103 C.3     
  21 N21           -1.7325    -1.0083    -1.3719 N.3     
  22 C22           -2.8622    -1.9482    -1.4124 C.3     
  23 C23           -0.6185    -1.4969    -2.1976 C.3     
  24 C24           -1.1001    -1.6771    -3.6397 C.3     
  25 O25           -2.2178    -2.5691    -3.6558 O.3     
  26 C26           -3.3212    -2.1239    -2.8623 C.3     
  27 C27            4.9024    -5.8074    -0.0725 C.ar    
  28 C28            5.8072    -6.8509    -0.0866 C.ar    
  29 C29            7.1772    -6.5905    -0.0984 C.ar    
  30 C30            7.6332    -5.2768    -0.1016 C.ar    
  31 C31            8.1470    -7.7138    -0.1131 C.ar    
  32 C32            7.6917    -9.0306    -0.1152 C.ar    
  33 C33            9.5160    -7.4554    -0.1306 C.ar    
  34 C34           10.4135    -8.5038    -0.1447 C.ar    
  35 C35            9.9561    -9.8092    -0.1419 C.ar    
  36 C36            8.5980   -10.0715    -0.1293 C.ar    
  37 H37           -0.9614     1.9069     0.0169 H       
  38 H38            1.1417     3.1785     0.0079 H       
  39 H39            4.0192     2.7439    -0.0223 H       
  40 H40            8.9176    -0.7236    -0.0851 H       
  41 H41            8.8532     1.8409    -0.0712 H       
  42 H42            5.3530    -2.0020    -0.0581 H       
  43 H43            1.1893    -1.7648    -0.0176 H       
  44 H44            4.6351    -3.6885    -0.0592 H       
  45 H45           -1.1546    -1.7218     0.5177 H       
  46 H46           -2.0564    -0.1872     0.5345 H       
  47 H47           -2.5486    -2.9117    -1.0106 H       
  48 H48           -3.6848    -1.5545    -0.8153 H       
  49 H49            0.1967    -0.7737    -2.1738 H       
  50 H50           -0.2691    -2.4532    -1.8084 H       
  51 H51           -1.3993    -0.7112    -4.0468 H       
  52 H52           -0.2936    -2.0932    -4.2434 H       
  53 H53           -4.1211    -2.8632    -2.9038 H       
  54 H54           -3.6850    -1.1711    -3.2469 H       
  55 H55            3.8425    -6.0148    -0.0627 H       
  56 H56            5.4528    -7.8711    -0.0883 H       
  57 H57            8.6933    -5.0708    -0.1111 H       
  58 H58            6.6316    -9.2365    -0.1054 H       
  59 H59            9.8742    -6.4365    -0.1336 H       
  60 H60           11.4749    -8.3047    -0.1584 H       
  61 H61           10.6618   -10.6266    -0.1533 H       
  62 H62            8.2462   -11.0926    -0.1268 H       
@<TRIPOS>BOND
   1    1    2 ar
   2    1    5 ar
   3    1   37 1
   4    2   17 ar
   5    2   20 1
   6    3    4 ar
   7    3    6 1
   8    3   17 ar
   9    4    5 ar
  10    4    8 1
  11    5   38 1
  12    6    7 2
  13    7    8 1
  14    7    9 1
  15    8   39 1
  16    9   10 1
  17    9   13 2
  18   10   11 2
  19   10   14 1
  20   11   12 1
  21   11   40 1
  22   12   13 1
  23   12   41 1
  24   14   15 am
  25   14   42 1
  26   15   16 2
  27   15   18 1
  28   17   43 1
  29   18   19 ar
  30   18   30 ar
  31   19   27 ar
  32   19   44 1
  33   20   21 1
  34   20   45 1
  35   20   46 1
  36   21   22 1
  37   21   23 1
  38   22   26 1
  39   22   47 1
  40   22   48 1
  41   23   24 1
  42   23   49 1
  43   23   50 1
  44   24   25 1
  45   24   51 1
  46   24   52 1
  47   25   26 1
  48   26   53 1
  49   26   54 1
  50   27   28 ar
  51   27   55 1
  52   28   29 ar
  53   28   56 1
  54   29   30 ar
  55   29   31 1
  56   30   57 1
  57   31   32 ar
  58   31   33 ar
  59   32   36 ar
  60   32   58 1
  61   33   34 ar
  62   33   59 1
  63   34   35 ar
  64   34   60 1
  65   35   36 ar
  66   35   61 1
  67   36   62 1

#	End of record

