#	Name: ASD02250002
#	Creating user name:	WinNT
#	Creation time:	15. 06. 2019 20:20

#	Modifying user name:	WinNT
#	Modification time:	15. 06. 2019 20:20

#	Program:	/corina/corina34_cracker 3.40 0067  02.08.2006

@<TRIPOS>MOLECULE
ASD02250002
  79   82    0    0    0
SMALL
NO_CHARGES


@<TRIPOS>ATOM
   1 C1             0.4125     0.5786     1.2402 C.3     
   2 C2             0.6370    -0.9325     1.2101 C.3     
   3 C3             1.6786    -1.3348     2.2563 C.3     
   4 C4             2.9856    -0.5910     1.9821 C.3     
   5 C5             2.7613     0.9161     2.0553 C.3     
   6 C6             1.7302     1.3182     1.0025 C.3     
   7 C7             4.0656    -1.0297     2.9653 C.3     
   8 C8             5.3862    -0.3217     2.6354 C.3     
   9 C9             5.1702     0.6255     1.4535 C.3     
  10 C10            4.0935     1.6466     1.8091 C.3     
  11 C11            6.4419     1.2608     0.9838 C.3     
  12 C12            6.4139     2.8039     1.0332 C.3     
  13 C13            5.2498     3.3104     0.2337 C.3     
  14 C14            3.9249     2.7260     0.7595 C.3     
  15 C15            7.7377     0.9657     1.7540 C.3     
  16 C16            8.7185     1.9881     1.1059 C.3     
  17 C17            7.8396     3.1599     0.5889 C.3     
  18 O18            1.0840    -1.3271    -0.0882 O.3     
  19 O19            6.3561    -1.3137     2.2854 O.3     
  20 O20            5.3422     2.9452    -1.1524 O.3     
  21 C21            8.0027     3.3096    -0.9144 C.3     
  22 C22            7.7406     1.9633    -1.5924 C.3     
  23 C23            7.8874     2.1181    -3.1075 C.3     
  24 C24            7.6292     0.7921    -3.7753 C.2     
  25 N25            7.7032     0.6875    -5.1169 N.am    
  26 O26            7.3549    -0.1810    -3.1054 O.2     
  27 C27            7.4523    -0.6016    -5.7661 C.3     
  28 C28            7.5990    -0.4468    -7.2812 C.3     
  29 C29            6.3282     3.3371     2.4763 C.3     
  30 C30            2.2589     1.3240     3.4437 C.3     
  31 C31            9.4272     3.7705    -1.2295 C.3     
  32 S32            7.2882    -2.0430    -8.0850 S.o2    
  33 O33            7.4188    -1.9250    -9.4951 O.2     
  34 O34            7.9315    -3.0925    -7.3750 O.2     
  35 H35           -0.2876     0.8453     0.4389 H       
  36 H36           -0.0282     0.8719     2.1887 H       
  37 H37           -0.3060    -1.4395     1.4316 H       
  38 H38            1.3094    -1.1199     3.2537 H       
  39 H39            1.8612    -2.4121     2.1762 H       
  40 H40            3.3091    -0.8529     0.9654 H       
  41 H41            2.1050     1.0608     0.0094 H       
  42 H42            1.5531     2.3932     1.0546 H       
  43 H43            3.7734    -0.8071     3.9878 H       
  44 H44            4.2150    -2.1108     2.8734 H       
  45 H45            5.7288     0.2399     3.5014 H       
  46 H46            4.7871     0.0120     0.6141 H       
  47 H47            4.3211     2.0969     2.7829 H       
  48 H48            6.6091     0.9466    -0.0694 H       
  49 H49            5.2031     4.4077     0.2968 H       
  50 H50            3.3755     2.3222    -0.1014 H       
  51 H51            3.3227     3.5456     1.1743 H       
  52 H52            7.6387     1.1229     2.8176 H       
  53 H53            8.0835    -0.0497     1.5418 H       
  54 H54            9.4233     2.3521     1.8507 H       
  55 H55            9.2444     1.5227     0.2743 H       
  56 H56            8.1447     4.0846     1.0920 H       
  57 H57            0.4617    -1.1189    -0.7985 H       
  58 H58            6.5331    -1.9554     2.9868 H       
  59 H59            4.6037     3.2593    -1.6920 H       
  60 H60            7.2916     4.0477    -1.2853 H       
  61 H61            8.4599     1.2283    -1.2309 H       
  62 H62            6.7302     1.6288    -1.3575 H       
  63 H63            7.1682     2.8531    -3.4689 H       
  64 H64            8.8979     2.4526    -3.3423 H       
  65 H65            7.9226     1.4658    -5.6527 H       
  66 H66            8.1715    -1.3366    -5.4046 H       
  67 H67            6.4418    -0.9361    -5.5312 H       
  68 H68            6.8798     0.2882    -7.6426 H       
  69 H69            8.6095    -0.1123    -7.5160 H       
  70 H70            7.3161     3.3027     2.9356 H       
  71 H71            5.9695     4.3663     2.4626 H       
  72 H72            5.6383     2.7196     3.0514 H       
  73 H73            2.9969     1.0415     4.1946 H       
  74 H74            2.1061     2.4028     3.4724 H       
  75 H75            1.3164     0.8178     3.6522 H       
  76 H76           10.1324     2.9870    -0.9520 H       
  77 H77            9.5147     3.9770    -2.2961 H       
  78 H78            9.6494     4.6759    -0.6647 H       
  79 H79            5.9763    -2.2667    -7.8909 H       
@<TRIPOS>BOND
   1    1    2 1
   2    1    6 1
   3    1   35 1
   4    1   36 1
   5    2    3 1
   6    2   18 1
   7    2   37 1
   8    3    4 1
   9    3   38 1
  10    3   39 1
  11    4    5 1
  12    4    7 1
  13    4   40 1
  14    5    6 1
  15    5   30 1
  16    5   10 1
  17    6   41 1
  18    6   42 1
  19    7    8 1
  20    7   43 1
  21    7   44 1
  22    8    9 1
  23    8   19 1
  24    8   45 1
  25    9   10 1
  26    9   11 1
  27    9   46 1
  28   10   14 1
  29   10   47 1
  30   11   12 1
  31   11   15 1
  32   11   48 1
  33   12   29 1
  34   12   13 1
  35   12   17 1
  36   13   14 1
  37   13   20 1
  38   13   49 1
  39   14   50 1
  40   14   51 1
  41   15   16 1
  42   15   52 1
  43   15   53 1
  44   16   17 1
  45   16   54 1
  46   16   55 1
  47   17   21 1
  48   17   56 1
  49   18   57 1
  50   19   58 1
  51   20   59 1
  52   21   22 1
  53   21   31 1
  54   21   60 1
  55   22   23 1
  56   22   61 1
  57   22   62 1
  58   23   24 1
  59   23   63 1
  60   23   64 1
  61   24   25 am
  62   24   26 2
  63   25   27 1
  64   25   65 1
  65   27   28 1
  66   27   66 1
  67   27   67 1
  68   28   32 1
  69   28   68 1
  70   28   69 1
  71   29   70 1
  72   29   71 1
  73   29   72 1
  74   30   73 1
  75   30   74 1
  76   30   75 1
  77   31   76 1
  78   31   77 1
  79   31   78 1
  80   32   33 2
  81   32   34 2
  82   32   79 1

#	End of record

