#	Name: ASD02500215
#	Creating user name:	WinNT
#	Creation time:	15. 06. 2019 20:22

#	Modifying user name:	WinNT
#	Modification time:	15. 06. 2019 20:22

#	Program:	/corina/corina34_cracker 3.40 0067  02.08.2006

@<TRIPOS>MOLECULE
ASD02500215
  76   80    0    0    0
SMALL
NO_CHARGES


@<TRIPOS>ATOM
   1 N1             1.1502     1.7238     1.2842 N.am    
   2 C2             1.0641     0.2568     1.3021 C.3     
   3 C3             1.2690    -0.2636    -0.1260 C.3     
   4 N4             2.4706     0.3686    -0.6883 N.am    
   5 C5             2.5566     1.8356    -0.7062 C.3     
   6 C6             2.3518     2.3560     0.7219 C.3     
   7 C7             0.1427     2.4760     1.7697 C.2     
   8 O8            -0.8481     1.9420     2.2276 O.2     
   9 O9             0.2341     3.8191     1.7474 O.3     
  10 C10            3.4759    -0.3835    -1.1784 C.2     
  11 C11            3.4182    -1.8535    -1.0692 C.ar    
  12 C12            2.2195    -2.5281    -1.3197 C.ar    
  13 C13            2.1689    -3.8992    -1.2169 C.ar    
  14 C14            3.3098    -4.6149    -0.8634 C.ar    
  15 C15            4.5046    -3.9461    -0.6129 C.ar    
  16 C16            4.5633    -2.5753    -0.7206 C.ar    
  17 O17            4.4303     0.1496    -1.7107 O.2     
  18 S18            4.1912    -6.7846     0.3588 S.o2    
  19 O19            4.0626    -6.0555     1.5716 O.2     
  20 O20            3.8788    -8.1662     0.2457 O.2     
  21 N21            3.2553    -6.0005    -0.7599 N.am    
  22 N22            5.4514    -7.8372    -2.1568 N.ar    
  23 C23            5.8466    -8.3596    -3.2922 C.ar    
  24 C24            7.1637    -8.2462    -3.7325 C.ar    
  25 C25            8.0807    -7.5762    -2.9739 C.ar    
  26 C26            7.6527    -7.0162    -1.7553 C.ar    
  27 C27            8.5381    -6.3141    -0.9223 C.ar    
  28 C28            8.0854    -5.7875     0.2490 C.ar    
  29 C29            6.7541    -5.9353     0.6320 C.ar    
  30 C30            5.8689    -6.6106    -0.1508 C.ar    
  31 C31            6.2983    -7.1691    -1.3672 C.ar    
  32 C32            0.8772    -4.6271    -1.4867 C.3     
  33 C33           -0.8886     4.5653     2.2869 C.3     
  34 C34           -0.6047     6.0647     2.1764 C.3     
  35 C35           -1.7877     6.8509     2.7450 C.3     
  36 C36           -1.4529     8.3438     2.7494 C.3     
  37 C37           -2.6358     9.1301     3.3180 C.3     
  38 C38           -3.8732     8.8875     2.4514 C.3     
  39 C39           -4.2080     7.3946     2.4470 C.3     
  40 C40           -3.0250     6.6083     1.8784 C.3     
  41 H41            1.8392    -0.1472     1.9534 H       
  42 H42            0.0825    -0.0477     1.6652 H       
  43 H43            1.4002    -1.3455    -0.1058 H       
  44 H44            0.4022    -0.0091    -0.7359 H       
  45 H45            3.5382     2.1401    -1.0693 H       
  46 H46            1.7815     2.2396    -1.3575 H       
  47 H47            2.2205     3.4379     0.7017 H       
  48 H48            3.2186     2.1015     1.3318 H       
  49 H49            1.3340    -1.9735    -1.5932 H       
  50 H50            5.3878    -4.5040    -0.3386 H       
  51 H51            5.4918    -2.0574    -0.5309 H       
  52 H52            2.6691    -6.5077    -1.3430 H       
  53 H53            5.1323    -8.8922    -3.9026 H       
  54 H54            7.4592    -8.6881    -4.6726 H       
  55 H55            9.1058    -7.4791    -3.2997 H       
  56 H56            9.5723    -6.1927    -1.2086 H       
  57 H57            8.7673    -5.2475     0.8892 H       
  58 H58            6.4196    -5.5090     1.5662 H       
  59 H59            0.8203    -4.8864    -2.5439 H       
  60 H60            0.8406    -5.5367    -0.8871 H       
  61 H61            0.0366    -3.9849    -1.2243 H       
  62 H62           -1.7899     4.3236     1.7236 H       
  63 H63           -1.0323     4.2989     3.3341 H       
  64 H64            0.2966     6.3063     2.7398 H       
  65 H65           -0.4610     6.3310     1.1293 H       
  66 H66           -1.9874     6.5204     3.7643 H       
  67 H67           -0.5713     8.5167     3.3668 H       
  68 H68           -1.2531     8.6744     1.7301 H       
  69 H69           -2.8356     8.7996     4.3372 H       
  70 H70           -2.3973    10.1937     3.3211 H       
  71 H71           -4.7160     9.4477     2.8565 H       
  72 H72           -3.6735     9.2181     1.4321 H       
  73 H73           -4.4077     7.0640     3.4663 H       
  74 H74           -5.0895     7.2217     1.8296 H       
  75 H75           -2.8253     6.9389     0.8592 H       
  76 H76           -3.2636     5.5447     1.8753 H       
@<TRIPOS>BOND
   1    1    2 1
   2    1    6 1
   3    1    7 am
   4    2    3 1
   5    2   41 1
   6    2   42 1
   7    3    4 1
   8    3   43 1
   9    3   44 1
  10    4    5 1
  11    4   10 am
  12    5    6 1
  13    5   45 1
  14    5   46 1
  15    6   47 1
  16    6   48 1
  17    7    8 2
  18    7    9 1
  19    9   33 1
  20   10   11 1
  21   10   17 2
  22   11   12 ar
  23   11   16 ar
  24   12   13 ar
  25   12   49 1
  26   13   14 ar
  27   13   32 1
  28   14   15 ar
  29   14   21 1
  30   15   16 ar
  31   15   50 1
  32   16   51 1
  33   18   19 2
  34   18   20 2
  35   18   21 am
  36   18   30 1
  37   21   52 1
  38   22   23 ar
  39   22   31 ar
  40   23   24 ar
  41   23   53 1
  42   24   25 ar
  43   24   54 1
  44   25   26 ar
  45   25   55 1
  46   26   27 ar
  47   26   31 ar
  48   27   28 ar
  49   27   56 1
  50   28   29 ar
  51   28   57 1
  52   29   30 ar
  53   29   58 1
  54   30   31 ar
  55   32   59 1
  56   32   60 1
  57   32   61 1
  58   33   34 1
  59   33   62 1
  60   33   63 1
  61   34   35 1
  62   34   64 1
  63   34   65 1
  64   35   36 1
  65   35   40 1
  66   35   66 1
  67   36   37 1
  68   36   67 1
  69   36   68 1
  70   37   38 1
  71   37   69 1
  72   37   70 1
  73   38   39 1
  74   38   71 1
  75   38   72 1
  76   39   40 1
  77   39   73 1
  78   39   74 1
  79   40   75 1
  80   40   76 1

#	End of record

