#	Name: ASD03240513
#	Creating user name:	WinNT
#	Creation time:	15. 06. 2019 20:35

#	Modifying user name:	WinNT
#	Modification time:	15. 06. 2019 20:35

#	Program:	/corina/corina34_cracker 3.40 0067  02.08.2006

@<TRIPOS>MOLECULE
ASD03240513
  43   45    0    0    0
SMALL
NO_CHARGES


@<TRIPOS>ATOM
   1 C1             1.1236    -0.1797    -0.2425 C.ar    
   2 C2            -0.1883     0.2423    -0.1238 C.ar    
   3 C3             2.1403     0.7456    -0.3656 C.ar    
   4 C4             1.8433     2.1066    -0.3701 C.ar    
   5 C5             0.5204     2.5262    -0.2502 C.ar    
   6 C6            -0.4888     1.5924    -0.1282 C.ar    
   7 C7             2.9330     3.1065    -0.5018 C.2     
   8 C8             2.7848     4.4627    -0.5208 C.2     
   9 N9             4.0118     5.0052    -0.6542 N.pl3   
  10 N10            4.9458     3.9642    -0.7197 N.2     
  11 C11            4.3082     2.8277    -0.6236 C.2     
  12 C12           -1.2942    -0.7726     0.0103 C.3     
  13 C13           -1.4325    -1.5383    -1.2802 C.ar    
  14 C14           -2.5574    -1.3703    -2.0655 C.ar    
  15 C15           -2.6851    -2.0733    -3.2510 C.ar    
  16 C16           -1.6837    -2.9456    -3.6493 C.ar    
  17 C17           -0.5585    -3.1116    -2.8607 C.ar    
  18 C18           -0.4313    -2.4039    -1.6803 C.ar    
  19 F19           -1.8064    -3.6331    -4.8058 F       
  20 C20           -0.9614    -1.7426     1.1457 C.3     
  21 C21           -0.9438    -0.9851     2.4750 C.3     
  22 N22           -0.6242    -1.9164     3.5651 N.3     
  23 F23           -3.7846    -1.9100    -4.0189 F       
  24 C24           -0.5985    -1.2226     4.8597 C.3     
  25 H25            1.3532    -1.2350    -0.2343 H       
  26 H26            3.1643     0.4151    -0.4579 H       
  27 H27            0.2847     3.5801    -0.2532 H       
  28 H28           -1.5148     1.9166    -0.0355 H       
  29 H29            1.8532     5.0036    -0.4431 H       
  30 H30            4.2128     5.9532    -0.6975 H       
  31 H31            4.7568     1.8454    -0.6417 H       
  32 H32           -2.2313    -0.2617     0.2318 H       
  33 H33           -3.3369    -0.6908    -1.7539 H       
  34 H34            0.2222    -3.7908    -3.1698 H       
  35 H35            0.4469    -2.5339    -1.0653 H       
  36 H36           -1.7158    -2.5283     1.1853 H       
  37 H37            0.0177    -2.1876     0.9682 H       
  38 H38           -0.1893    -0.1994     2.4354 H       
  39 H39           -1.9228    -0.5401     2.6525 H       
  40 H40           -1.2725    -2.6894     3.5820 H       
  41 H41            0.1584    -0.4385     4.8367 H       
  42 H42           -1.5751    -0.7793     5.0538 H       
  43 H43           -0.3595    -1.9352     5.6491 H       
@<TRIPOS>BOND
   1    1    2 ar
   2    1    3 ar
   3    1   25 1
   4    2   12 1
   5    2    6 ar
   6    3    4 ar
   7    3   26 1
   8    4    5 ar
   9    4    7 1
  10    5    6 ar
  11    5   27 1
  12    6   28 1
  13    7    8 2
  14    7   11 1
  15    8    9 1
  16    8   29 1
  17    9   10 1
  18    9   30 1
  19   10   11 2
  20   11   31 1
  21   12   13 1
  22   12   20 1
  23   12   32 1
  24   13   14 ar
  25   13   18 ar
  26   14   15 ar
  27   14   33 1
  28   15   16 ar
  29   15   23 1
  30   16   17 ar
  31   16   19 1
  32   17   18 ar
  33   17   34 1
  34   18   35 1
  35   20   21 1
  36   20   36 1
  37   20   37 1
  38   21   22 1
  39   21   38 1
  40   21   39 1
  41   22   24 1
  42   22   40 1
  43   24   41 1
  44   24   42 1
  45   24   43 1

#	End of record

