#	Name: ASD00310291
#	Creating user name:	WinNT
#	Creation time:	15. 06. 2019 18:34

#	Modifying user name:	WinNT
#	Modification time:	15. 06. 2019 18:34

#	Program:	/corina/corina34_cracker 3.40 0067  02.08.2006

@<TRIPOS>MOLECULE
ASD00310291
  27   28    0    0    0
SMALL
NO_CHARGES


@<TRIPOS>ATOM
   1 C1            -0.0188     1.5336     0.0105 C.3     
   2 C2             0.0251    -0.0036     0.0122 C.3     
   3 C3             1.3982     0.1132    -0.6704 C.3     
   4 C4             1.5184     1.4991    -0.0149 C.3     
   5 O5            -0.5985     2.0884    -1.1720 O.3     
   6 C6            -0.5886     2.1226     1.2751 C.ar    
   7 C7            -0.0557     1.7697     2.5068 C.ar    
   8 C8            -0.5821     2.3133     3.6692 C.ar    
   9 C9            -1.6360     3.2052     3.5980 C.ar    
  10 C10           -2.1654     3.5548     2.3687 C.ar    
  11 C11           -1.6378     3.0185     1.2086 C.ar    
  12 O12            0.9800     0.8924     2.5740 O.3     
  13 C13            1.4779     0.5749     3.8753 C.3     
  14 Br14          -2.3547     3.9472     5.1819 Br      
  15 H15            0.0695    -0.4380     1.0109 H       
  16 H16           -0.7375    -0.4629    -0.6168 H       
  17 H17            2.1299    -0.6075    -0.3053 H       
  18 H18            1.3433     0.1480    -1.7585 H       
  19 H19            1.9614     2.2529    -0.6658 H       
  20 H20            1.9711     1.4755     0.9764 H       
  21 H21           -0.6289     3.0549    -1.1789 H       
  22 H22           -0.1692     2.0398     4.6289 H       
  23 H23           -2.9890     4.2514     2.3147 H       
  24 H24           -2.0497     3.2967     0.2497 H       
  25 H25            0.6800     0.1324     4.4717 H       
  26 H26            2.3010    -0.1340     3.7864 H       
  27 H27            1.8324     1.4843     4.3605 H       
@<TRIPOS>BOND
   1    1    2 1
   2    1    4 1
   3    1    5 1
   4    1    6 1
   5    2    3 1
   6    2   15 1
   7    2   16 1
   8    3    4 1
   9    3   17 1
  10    3   18 1
  11    4   19 1
  12    4   20 1
  13    5   21 1
  14    6    7 ar
  15    6   11 ar
  16    7    8 ar
  17    7   12 1
  18    8    9 ar
  19    8   22 1
  20    9   10 ar
  21    9   14 1
  22   10   11 ar
  23   10   23 1
  24   11   24 1
  25   12   13 1
  26   13   25 1
  27   13   26 1
  28   13   27 1

#	End of record

