#	Name: ASD02560306
#	Creating user name:	WinNT
#	Creation time:	15. 06. 2019 20:25

#	Modifying user name:	WinNT
#	Modification time:	15. 06. 2019 20:25

#	Program:	/corina/corina34_cracker 3.40 0067  02.08.2006

@<TRIPOS>MOLECULE
ASD02560306
  43   45    0    0    0
SMALL
NO_CHARGES


@<TRIPOS>ATOM
   1 C1             0.0087     1.3240     0.2467 C.2     
   2 O2             0.0160    -0.0219     0.1305 O.3     
   3 C3            -1.2600    -0.4381     0.1152 C.2     
   4 N4            -2.0418     0.6086     0.2180 N.2     
   5 C5            -1.2739     1.7116     0.3066 C.2     
   6 N6            -1.6794    -1.7513     0.0083 N.pl3   
   7 C7             1.2172     2.2224     0.3047 C.3     
   8 C8            -3.0370    -2.0632     0.1251 C.ar    
   9 C9            -3.5611    -3.1562    -0.5534 C.ar    
  10 C10           -4.9027    -3.4617    -0.4354 C.ar    
  11 C11           -5.7242    -2.6808     0.3568 C.ar    
  12 C12           -5.2057    -1.5919     1.0336 C.ar    
  13 C13           -3.8639    -1.2841     0.9245 C.ar    
  14 C14            1.6432     2.3993     1.7394 C.ar    
  15 C15            2.5546     1.5240     2.3043 C.ar    
  16 C16            1.1276     3.4407     2.4916 C.ar    
  17 C17            1.5201     3.6025     3.8096 C.ar    
  18 C18            2.4262     2.7249     4.3742 C.ar    
  19 C19            2.9457     1.6878     3.6225 C.ar    
  20 F20            0.2422     4.2990     1.9399 F       
  21 F21            3.0622     0.5099     1.5699 F       
  22 C22           -1.7678     3.1292     0.4389 C.3     
  23 C23           -7.1879    -3.0167     0.4824 C.3     
  24 O24           -7.3789    -3.9108     1.5806 O.3     
  25 C25           -8.7398    -4.2943     1.7880 C.3     
  26 H26           -1.0315    -2.4562    -0.1478 H       
  27 H27            2.0317     1.7729    -0.2633 H       
  28 H28            0.9687     3.1937    -0.1229 H       
  29 H29           -2.9201    -3.7661    -1.1728 H       
  30 H30           -5.3107    -4.3114    -0.9626 H       
  31 H31           -5.8502    -0.9839     1.6511 H       
  32 H32           -3.4596    -0.4337     1.4533 H       
  33 H33            1.1182     4.4152     4.3966 H       
  34 H34            2.7318     2.8519     5.4022 H       
  35 H35            3.6534     1.0023     4.0648 H       
  36 H36           -1.8747     3.3797     1.4943 H       
  37 H37           -1.0523     3.8080    -0.0250 H       
  38 H38           -2.7338     3.2251    -0.0569 H       
  39 H39           -7.7569    -2.1030     0.6545 H       
  40 H40           -7.5319    -3.4913    -0.4366 H       
  41 H41           -9.1160    -4.7954     0.8961 H       
  42 H42           -8.8004    -4.9729     2.6389 H       
  43 H43           -9.3410    -3.4072     1.9872 H       
@<TRIPOS>BOND
   1    1    2 1
   2    1    7 1
   3    1    5 2
   4    2    3 1
   5    3    4 2
   6    3    6 1
   7    4    5 1
   8    5   22 1
   9    6    8 1
  10    6   26 1
  11    7   14 1
  12    7   27 1
  13    7   28 1
  14    8    9 ar
  15    8   13 ar
  16    9   10 ar
  17    9   29 1
  18   10   11 ar
  19   10   30 1
  20   11   12 ar
  21   11   23 1
  22   12   13 ar
  23   12   31 1
  24   13   32 1
  25   14   15 ar
  26   14   16 ar
  27   15   21 1
  28   15   19 ar
  29   16   17 ar
  30   16   20 1
  31   17   18 ar
  32   17   33 1
  33   18   19 ar
  34   18   34 1
  35   19   35 1
  36   22   36 1
  37   22   37 1
  38   22   38 1
  39   23   24 1
  40   23   39 1
  41   23   40 1
  42   24   25 1
  43   25   41 1
  44   25   42 1
  45   25   43 1

#	End of record

