#	Name: ASD01881449
#	Creating user name:	WinNT
#	Creation time:	15. 06. 2019 19:42

#	Modifying user name:	WinNT
#	Modification time:	15. 06. 2019 19:42

#	Program:	/corina/corina34_cracker 3.40 0067  02.08.2006

@<TRIPOS>MOLECULE
ASD01881449
  52   56    0    0    0
SMALL
NO_CHARGES


@<TRIPOS>ATOM
   1 C1            -0.0357     2.1589    -0.9273 C.3     
   2 C2             1.2049    10.1616     4.3023 C.ar    
   3 C3             1.4087     9.1486     3.3906 C.ar    
   4 C4            -0.0005    10.2474     4.9903 C.ar    
   5 C5            -1.0032     9.3117     4.7604 C.ar    
   6 C6            -0.8044     8.2968     3.8497 C.ar    
   7 C7             0.4042     8.2085     3.1581 C.ar    
   8 C8             0.6203     7.1188     2.1783 C.2     
   9 C9             0.7810     7.4086     0.8361 C.2     
  10 C10            0.6706     5.7702     2.6080 C.2     
  11 C11            0.8667     4.7815     1.7159 C.2     
  12 N12            1.0207     5.0581     0.3878 N.pl3   
  13 C13            0.9843     6.3535    -0.0692 C.2     
  14 C14            1.2274     4.2819    -0.7119 C.2     
  15 N15            1.3014     5.0774    -1.7475 N.2     
  16 N16            1.1601     6.3026    -1.3808 N.2     
  17 C17            1.3489     2.7799    -0.7321 C.3     
  18 N18           -0.2044    11.2745     5.9131 N.pl3   
  19 C19           -1.4876    11.7688     6.1325 C.ar    
  20 C20           -1.8486    12.2967     7.3736 C.ar    
  21 C21           -2.4413    11.7543     5.1179 C.ar    
  22 C22           -3.1277    12.7767     7.5534 C.ar    
  23 N23           -4.0095    12.7422     6.5710 N.ar    
  24 C24           -3.7067    12.2558     5.3775 C.ar    
  25 C25           -0.1115     0.6398    -1.0928 C.3     
  26 C26           -0.5875     1.2924     0.2066 C.3     
  27 O27           -4.6474    12.2424     4.3997 O.3     
  28 C28           -5.9347    12.7672     4.7308 C.3     
  29 C29            0.7382     8.8348     0.3512 C.3     
  30 F30            2.0406     9.3392     0.2702 F       
  31 F31            0.1412     8.8798    -0.9133 F       
  32 F32           -0.0070     9.6096     1.2465 F       
  33 H33           -0.7465     2.7627    -1.4913 H       
  34 H34            1.9838    10.8869     4.4859 H       
  35 H35            2.3449     9.0826     2.8563 H       
  36 H36           -1.9383     9.3801     5.2964 H       
  37 H37           -1.5833     7.5701     3.6717 H       
  38 H38            0.5509     5.5342     3.6551 H       
  39 H39            0.9036     3.7568     2.0550 H       
  40 H40            1.7711     2.4369     0.2125 H       
  41 H41            2.0010     2.4791    -1.5521 H       
  42 H42            0.5478    11.6439     6.4017 H       
  43 H43           -1.1342    12.3283     8.1829 H       
  44 H44           -2.1981    11.3584     4.1429 H       
  45 H45           -3.4131    13.1863     8.5111 H       
  46 H46           -0.8726     0.2442    -1.7655 H       
  47 H47            0.8249     0.0828    -1.0627 H       
  48 H48            0.0359     1.1648     1.0916 H       
  49 H49           -1.6616     1.3262     0.3888 H       
  50 H50           -5.8360    13.8112     5.0281 H       
  51 H51           -6.5900    12.6970     3.8626 H       
  52 H52           -6.3600    12.1936     5.5544 H       
@<TRIPOS>BOND
   1    1   25 1
   2    1   17 1
   3    1   26 1
   4    1   33 1
   5    2    3 ar
   6    2    4 ar
   7    2   34 1
   8    3    7 ar
   9    3   35 1
  10    4    5 ar
  11    4   18 1
  12    5    6 ar
  13    5   36 1
  14    6    7 ar
  15    6   37 1
  16    7    8 1
  17    8    9 2
  18    8   10 1
  19    9   29 1
  20    9   13 1
  21   10   11 2
  22   10   38 1
  23   11   12 1
  24   11   39 1
  25   12   13 1
  26   12   14 1
  27   13   16 2
  28   14   15 2
  29   14   17 1
  30   15   16 1
  31   17   40 1
  32   17   41 1
  33   18   19 1
  34   18   42 1
  35   19   20 ar
  36   19   21 ar
  37   20   22 ar
  38   20   43 1
  39   21   24 ar
  40   21   44 1
  41   22   23 ar
  42   22   45 1
  43   23   24 ar
  44   24   27 1
  45   25   26 1
  46   25   46 1
  47   25   47 1
  48   26   48 1
  49   26   49 1
  50   27   28 1
  51   28   50 1
  52   28   51 1
  53   28   52 1
  54   29   30 1
  55   29   31 1
  56   29   32 1

#	End of record

