#	Name: ASD01208643
#	Creating user name:	WinNT
#	Creation time:	15. 06. 2019 19:10

#	Modifying user name:	WinNT
#	Modification time:	15. 06. 2019 19:10

#	Program:	/corina/corina34_cracker 3.40 0067  02.08.2006

@<TRIPOS>MOLECULE
ASD01208643
  62   65    0    0    0
SMALL
NO_CHARGES


@<TRIPOS>ATOM
   1 C1             1.4207    -0.7965    -3.9591 C.ar    
   2 C2             2.6119    -0.0720    -3.9977 C.ar    
   3 C3             3.3807     0.0214    -2.8517 C.ar    
   4 C4             2.9315    -0.6159    -1.6979 C.ar    
   5 C5             1.7316    -1.3217    -1.7341 C.ar    
   6 N6             1.0249    -1.3910    -2.8394 N.ar    
   7 C7             0.5865    -0.8987    -5.1763 C.2     
   8 O8             0.9402    -0.3529    -6.2031 O.2     
   9 N9            -0.5659    -1.5971    -5.1468 N.am    
  10 C10           -1.3921    -1.6983    -6.3524 C.3     
  11 O11            3.6549    -0.5503    -0.5516 O.3     
  12 C12            4.8045     0.1741    -0.5633 C.ar    
  13 C13            4.7514     1.5594    -0.4974 C.ar    
  14 C14            5.9220     2.3037    -0.5095 C.ar    
  15 C15            7.1495     1.6664    -0.5874 C.ar    
  16 C16            7.2076     0.2740    -0.6534 C.ar    
  17 C17            6.0279    -0.4713    -0.6352 C.ar    
  18 N18            8.7087    -1.7610    -0.8061 N.pl3   
  19 C19            8.5152    -0.4101    -0.7366 C.2     
  20 C20            9.7468     0.2044    -0.7580 C.2     
  21 C21           10.7165    -0.7959    -0.8426 C.2     
  22 C22           10.0598    -2.0071    -0.8715 C.2     
  23 O23            9.9921    -4.4848    -0.9819 O.3     
  24 C24           10.6932    -3.3308    -0.9574 C.2     
  25 N25           11.9818    -3.5005    -1.0176 N.2     
  26 C26           12.2572    -4.9474    -1.1109 C.3     
  27 C27           10.8664    -5.5181    -1.4800 C.3     
  28 C28           10.7221    -5.6763    -2.9950 C.3     
  29 O29            5.8645     3.6600    -0.4452 O.3     
  30 C30            7.1084     4.3593    -0.3706 C.3     
  31 C31            6.8872     5.7253     0.2820 C.3     
  32 C32            7.6701     4.5527    -1.7806 C.3     
  33 O33            6.0535     6.5255    -0.5586 O.3     
  34 C34            5.7835     7.8287    -0.0384 C.3     
  35 H35            2.9299     0.4095    -4.9106 H       
  36 H36            4.3078     0.5753    -2.8518 H       
  37 H37            1.3778    -1.8186    -0.8428 H       
  38 H38           -0.8482    -2.0326    -4.3274 H       
  39 H39           -1.6968    -0.7008    -6.6689 H       
  40 H40           -0.8173    -2.1722    -7.1481 H       
  41 H41           -2.2770    -2.2973    -6.1372 H       
  42 H42            3.7960     2.0594    -0.4369 H       
  43 H43            8.0603     2.2467    -0.5975 H       
  44 H44            6.0686    -1.5495    -0.6817 H       
  45 H45            8.0101    -2.4338    -0.8051 H       
  46 H46            9.9296     1.2680    -0.7168 H       
  47 H47           11.7857    -0.6478    -0.8787 H       
  48 H48           12.9840    -5.1553    -1.8961 H       
  49 H49           12.5977    -5.3412    -0.1533 H       
  50 H50           10.6839    -6.4642    -0.9704 H       
  51 H51           10.9530    -4.7293    -3.4828 H       
  52 H52           11.4111    -6.4439    -3.3473 H       
  53 H53            9.6996    -5.9684    -3.2341 H       
  54 H54            7.8147     3.7817     0.2258 H       
  55 H55            6.4051     5.5915     1.2504 H       
  56 H56            7.8477     6.2219     0.4199 H       
  57 H57            6.9638     5.1302    -2.3770 H       
  58 H58            8.6190     5.0861    -1.7237 H       
  59 H59            7.8277     3.5795    -2.2456 H       
  60 H60            5.1450     8.3727    -0.7344 H       
  61 H61            5.2785     7.7386     0.9234 H       
  62 H62            6.7211     8.3690     0.0928 H       
@<TRIPOS>BOND
   1    1    2 ar
   2    1    6 ar
   3    1    7 1
   4    2    3 ar
   5    2   35 1
   6    3    4 ar
   7    3   36 1
   8    4    5 ar
   9    4   11 1
  10    5    6 ar
  11    5   37 1
  12    7    8 2
  13    7    9 am
  14    9   10 1
  15    9   38 1
  16   10   39 1
  17   10   40 1
  18   10   41 1
  19   11   12 1
  20   12   13 ar
  21   12   17 ar
  22   13   14 ar
  23   13   42 1
  24   14   15 ar
  25   14   29 1
  26   15   16 ar
  27   15   43 1
  28   16   17 ar
  29   16   19 1
  30   17   44 1
  31   18   19 1
  32   18   22 1
  33   18   45 1
  34   19   20 2
  35   20   21 1
  36   20   46 1
  37   21   22 2
  38   21   47 1
  39   22   24 1
  40   23   24 1
  41   23   27 1
  42   24   25 2
  43   25   26 1
  44   26   27 1
  45   26   48 1
  46   26   49 1
  47   27   28 1
  48   27   50 1
  49   28   51 1
  50   28   52 1
  51   28   53 1
  52   29   30 1
  53   30   31 1
  54   30   32 1
  55   30   54 1
  56   31   33 1
  57   31   55 1
  58   31   56 1
  59   32   57 1
  60   32   58 1
  61   32   59 1
  62   33   34 1
  63   34   60 1
  64   34   61 1
  65   34   62 1

#	End of record

