#	Name: ASD01884903
#	Creating user name:	WinNT
#	Creation time:	15. 06. 2019 19:49

#	Modifying user name:	WinNT
#	Modification time:	15. 06. 2019 19:49

#	Program:	/corina/corina34_cracker 3.40 0067  02.08.2006

@<TRIPOS>MOLECULE
ASD01884903
  52   57    0    0    0
SMALL
NO_CHARGES


@<TRIPOS>ATOM
   1 C1             0.5614     1.4810     0.3232 C.ar    
   2 C2             0.4216     0.1081     0.2668 C.ar    
   3 C3             1.5441    -0.7004     0.0879 C.ar    
   4 C4             2.8050    -0.1203    -0.0419 C.ar    
   5 C5             2.9313     1.2584     0.0081 C.ar    
   6 C6             1.8144     2.0503     0.2020 C.ar    
   7 C7             1.3964    -2.1742     0.0363 C.2     
   8 C8             1.6442    -2.8595    -1.1378 C.2     
   9 C9             1.0057    -2.8944     1.1912 C.2     
  10 C10            0.8730    -4.2332     1.1426 C.2     
  11 N11            1.1107    -4.9180    -0.0143 N.pl3   
  12 C12            1.4961    -4.2570    -1.1556 C.2     
  13 C13            1.0573    -6.2365    -0.3488 C.2     
  14 N14            1.3871    -6.3367    -1.6107 N.2     
  15 N15            1.6490    -5.1749    -2.0976 N.2     
  16 C16            0.6861    -7.3736     0.5678 C.3     
  17 O17            4.1517     1.8392    -0.1599 O.3     
  18 C18            4.3198     2.5705    -1.3801 C.3     
  19 C19            3.8154     3.9896    -1.2304 C.3     
  20 N20            2.3747     4.0776    -1.0065 N.3     
  21 C21            1.9761     3.5544     0.3049 C.3     
  22 C22            1.9240     5.3745    -1.1811 C.ar    
  23 C23           -0.5269    -8.2234     0.1838 C.3     
  24 C24            0.8844    -8.7972     0.0436 C.3     
  25 N25            2.1596     5.9921    -2.3293 N.ar    
  26 C26            1.7426     7.2315    -2.5285 C.ar    
  27 C27            1.0522     7.8831    -1.5186 C.ar    
  28 C28            0.8229     7.2077    -0.3301 C.ar    
  29 N29            1.2625     5.9671    -0.1978 N.ar    
  30 C30            2.0664    -2.1194    -2.3808 C.3     
  31 F31            3.4423    -1.8711    -2.3309 F       
  32 F32            1.7730    -2.8948    -3.5076 F       
  33 F33            1.3760    -0.9051    -2.4576 F       
  34 H34           -0.3074     2.1083     0.4574 H       
  35 H35           -0.5567    -0.3395     0.3616 H       
  36 H36            3.6776    -0.7414    -0.1802 H       
  37 H37            0.8138    -2.3679     2.1144 H       
  38 H38            0.5751    -4.7723     2.0298 H       
  39 H39            0.8623    -7.1986     1.6292 H       
  40 H40            5.3775     2.5918    -1.6427 H       
  41 H41            3.7636     2.0742    -2.1753 H       
  42 H42            4.3281     4.4549    -0.3886 H       
  43 H43            4.0622     4.5447    -2.1354 H       
  44 H44            1.0297     4.0040     0.6053 H       
  45 H45            2.7447     3.7898     1.0411 H       
  46 H46           -1.1485    -8.6078     0.9925 H       
  47 H47           -1.0564    -7.9599    -0.7318 H       
  48 H48            1.2835    -8.9114    -0.9643 H       
  49 H49            1.1914    -9.5592     0.7600 H       
  50 H50            1.9380     7.7298    -3.4665 H       
  51 H51            0.7008     8.8952    -1.6546 H       
  52 H52            0.2884     7.6871     0.4766 H       
@<TRIPOS>BOND
   1    1    2 ar
   2    1    6 ar
   3    1   34 1
   4    2    3 ar
   5    2   35 1
   6    3    4 ar
   7    3    7 1
   8    4    5 ar
   9    4   36 1
  10    5    6 ar
  11    5   17 1
  12    6   21 1
  13    7    8 2
  14    7    9 1
  15    8   30 1
  16    8   12 1
  17    9   10 2
  18    9   37 1
  19   10   11 1
  20   10   38 1
  21   11   12 1
  22   11   13 1
  23   12   15 2
  24   13   14 2
  25   13   16 1
  26   14   15 1
  27   16   23 1
  28   16   24 1
  29   16   39 1
  30   17   18 1
  31   18   19 1
  32   18   40 1
  33   18   41 1
  34   19   20 1
  35   19   42 1
  36   19   43 1
  37   20   21 1
  38   20   22 1
  39   21   44 1
  40   21   45 1
  41   22   25 ar
  42   22   29 ar
  43   23   24 1
  44   23   46 1
  45   23   47 1
  46   24   48 1
  47   24   49 1
  48   25   26 ar
  49   26   27 ar
  50   26   50 1
  51   27   28 ar
  52   27   51 1
  53   28   29 ar
  54   28   52 1
  55   30   31 1
  56   30   32 1
  57   30   33 1

#	End of record

