#	Name: ASD01910637
#	Creating user name:	WinNT
#	Creation time:	15. 06. 2019 19:56

#	Modifying user name:	WinNT
#	Modification time:	15. 06. 2019 19:56

#	Program:	/corina/corina34_cracker 3.40 0067  02.08.2006

@<TRIPOS>MOLECULE
ASD01910637
  43   46    0    0    0
SMALL
NO_CHARGES


@<TRIPOS>ATOM
   1 C1             1.8470    -0.3404    -0.5146 C.ar    
   2 C2             2.1821    -1.6668    -0.7258 C.ar    
   3 C3             3.5130    -2.0111    -0.9116 C.ar    
   4 C4             4.4662    -1.0073    -0.8790 C.ar    
   5 C5             4.0573     0.3079    -0.6615 C.ar    
   6 N6             2.7727     0.5949    -0.4881 N.ar    
   7 C7             5.0632     1.3925    -0.6237 C.2     
   8 N8             4.8303     2.6774    -0.4288 N.2     
   9 C9             6.0323     3.2724    -0.4766 C.2     
  10 N10            6.9208     2.3478    -0.6928 N.2     
  11 O11            6.3899     1.2604    -0.7750 O.3     
  12 C12            6.3032     4.7455    -0.3103 C.3     
  13 C13            7.2302     4.9623     0.8879 C.3     
  14 C14            7.4796     6.4603     1.0777 C.3     
  15 C15            8.1651     7.0220    -0.1719 C.3     
  16 N16            7.3497     6.6903    -1.3482 N.am    
  17 C17            6.9754     5.2878    -1.5755 C.3     
  18 C18            6.9525     7.6541    -2.2024 C.2     
  19 C19            6.2386     7.2925    -3.4438 C.ar    
  20 O20            7.1818     8.8213    -1.9511 O.2     
  21 C21            6.7363     6.2830    -4.2704 C.ar    
  22 C22            6.0658     5.9488    -5.4280 C.ar    
  23 C23            4.9007     6.6108    -5.7746 C.ar    
  24 C24            4.3988     7.6133    -4.9627 C.ar    
  25 C25            5.0585     7.9552    -3.7938 C.ar    
  26 F26            4.5693     8.9332    -3.0004 F       
  27 F27            3.2612     8.2551    -5.3080 F       
  28 H28            0.8112    -0.0686    -0.3741 H       
  29 H29            1.4147    -2.4264    -0.7453 H       
  30 H30            3.7993    -3.0392    -1.0777 H       
  31 H31            5.5115    -1.2397    -1.0195 H       
  32 H32            5.3633     5.2716    -0.1430 H       
  33 H33            6.7648     4.5551     1.7855 H       
  34 H34            8.1788     4.4560     0.7094 H       
  35 H35            6.5289     6.9707     1.2316 H       
  36 H36            8.1210     6.6153     1.9452 H       
  37 H37            8.2556     8.1046    -0.0835 H       
  38 H38            9.1550     6.5778    -0.2765 H       
  39 H39            7.8682     4.7022    -1.7946 H       
  40 H40            6.2808     5.2262    -2.4133 H       
  41 H41            7.6455     5.7648    -4.0036 H       
  42 H42            6.4513     5.1680    -6.0668 H       
  43 H43            4.3809     6.3441    -6.6829 H       
@<TRIPOS>BOND
   1    1    2 ar
   2    1    6 ar
   3    1   28 1
   4    2    3 ar
   5    2   29 1
   6    3    4 ar
   7    3   30 1
   8    4    5 ar
   9    4   31 1
  10    5    6 ar
  11    5    7 1
  12    7    8 2
  13    7   11 1
  14    8    9 1
  15    9   10 2
  16    9   12 1
  17   10   11 1
  18   12   13 1
  19   12   17 1
  20   12   32 1
  21   13   14 1
  22   13   33 1
  23   13   34 1
  24   14   15 1
  25   14   35 1
  26   14   36 1
  27   15   16 1
  28   15   37 1
  29   15   38 1
  30   16   17 1
  31   16   18 am
  32   17   39 1
  33   17   40 1
  34   18   19 1
  35   18   20 2
  36   19   21 ar
  37   19   25 ar
  38   21   22 ar
  39   21   41 1
  40   22   23 ar
  41   22   42 1
  42   23   24 ar
  43   23   43 1
  44   24   25 ar
  45   24   27 1
  46   25   26 1

#	End of record

