#	Name: ASD05313285
#	Creating user name:	WinNT
#	Creation time:	15. 06. 2019 20:59

#	Modifying user name:	WinNT
#	Modification time:	15. 06. 2019 20:59

#	Program:	/corina/corina34_cracker 3.40 0067  02.08.2006

@<TRIPOS>MOLECULE
ASD05313285
  43   46    0    0    0
SMALL
NO_CHARGES


@<TRIPOS>ATOM
   1 C1            -0.0739     0.8188     1.0248 C.2     
   2 C2             0.1129    -0.6197     0.5961 C.3     
   3 N3             0.9289     1.7295     1.0510 N.pl3   
   4 N4             1.4551    -0.7207    -0.0057 N.am    
   5 C5             2.5699    -0.0411     0.6716 C.3     
   6 C6             2.3167     1.4706     0.6630 C.3     
   7 N7            -1.1740     1.3876     1.4245 N.2     
   8 C8            -0.9306     2.6711     1.7234 C.2     
   9 C9             0.3920     2.9109     1.4976 C.2     
  10 C10            1.1073     4.1897     1.6974 C.ar    
  11 C11            0.5440     5.3848     1.2480 C.ar    
  12 C12            1.2152     6.5749     1.4374 C.ar    
  13 C13            2.4467     6.5851     2.0725 C.ar    
  14 C14            3.0106     5.4014     2.5206 C.ar    
  15 C15            2.3454     4.2064     2.3411 C.ar    
  16 F16            3.1002     7.7534     2.2550 F       
  17 C17            1.6548    -1.4159    -1.1429 C.2     
  18 O18            2.7465    -1.4064    -1.6774 O.2     
  19 C19            0.5465    -2.1898    -1.7401 C.ar    
  20 C20            0.3154    -2.1364    -3.1171 C.ar    
  21 C21           -0.7225    -2.8625    -3.6679 C.ar    
  22 C22           -1.5315    -3.6401    -2.8593 C.ar    
  23 C23           -1.3077    -3.6966    -1.4949 C.ar    
  24 C24           -0.2707    -2.9819    -0.9320 C.ar    
  25 C25           -0.9742    -2.8069    -5.1526 C.3     
  26 F26           -2.0689    -3.6178    -5.4707 F       
  27 F27           -1.2458    -1.4876    -5.5305 F       
  28 F28            0.1584    -3.2637    -5.8351 F       
  29 Cl29           1.3294    -1.1598    -4.1328 Cl      
  30 Br30          -2.1975     3.9266     2.3515 Br      
  31 H31            0.0434    -1.2777     1.4623 H       
  32 H32           -0.6453    -0.8900    -0.1389 H       
  33 H33            2.6396    -0.3928     1.7010 H       
  34 H34            3.5009    -0.2577     0.1478 H       
  35 H35            2.4942     1.8633    -0.3382 H       
  36 H36            2.9891     1.9566     1.3699 H       
  37 H37           -0.4157     5.3779     0.7526 H       
  38 H38            0.7803     7.5003     1.0897 H       
  39 H39            3.9709     5.4148     3.0146 H       
  40 H40            2.7837     3.2848     2.6947 H       
  41 H41           -2.3419    -4.2057    -3.2948 H       
  42 H42           -1.9439    -4.3054    -0.8696 H       
  43 H43           -0.0946    -3.0314     0.1323 H       
@<TRIPOS>BOND
   1    1    2 1
   2    1    3 1
   3    1    7 2
   4    2    4 1
   5    2   31 1
   6    2   32 1
   7    3    6 1
   8    3    9 1
   9    4    5 1
  10    4   17 am
  11    5    6 1
  12    5   33 1
  13    5   34 1
  14    6   35 1
  15    6   36 1
  16    7    8 1
  17    8    9 2
  18    8   30 1
  19    9   10 1
  20   10   11 ar
  21   10   15 ar
  22   11   12 ar
  23   11   37 1
  24   12   13 ar
  25   12   38 1
  26   13   14 ar
  27   13   16 1
  28   14   15 ar
  29   14   39 1
  30   15   40 1
  31   17   18 2
  32   17   19 1
  33   19   20 ar
  34   19   24 ar
  35   20   21 ar
  36   20   29 1
  37   21   22 ar
  38   21   25 1
  39   22   23 ar
  40   22   41 1
  41   23   24 ar
  42   23   42 1
  43   24   43 1
  44   25   26 1
  45   25   27 1
  46   25   28 1

#	End of record

