#	Name: ASD01914605
#	Creating user name:	WinNT
#	Creation time:	15. 06. 2019 20:03

#	Modifying user name:	WinNT
#	Modification time:	15. 06. 2019 20:03

#	Program:	/corina/corina34_cracker 3.40 0067  02.08.2006

@<TRIPOS>MOLECULE
ASD01914605
  54   58    0    0    0
SMALL
NO_CHARGES


@<TRIPOS>ATOM
   1 C1            -0.0169     1.3930     0.0097 C.ar    
   2 C2             0.0021    -0.0041     0.0020 C.ar    
   3 C3             1.2376    -0.6369    -0.0132 C.ar    
   4 C4             2.3753     0.1542    -0.0198 C.ar    
   5 N5             2.2660     1.4714    -0.0112 N.ar    
   6 N6             1.1282     2.0652     0.0024 N.ar    
   7 C7            -1.3075     2.1203     0.0198 C.2     
   8 O8            -2.3535     1.5018     0.0214 O.2     
   9 N9            -1.3215     3.4680     0.0272 N.am    
  10 C10           -2.5978     4.1873     0.0371 C.3     
  11 C11           -2.3338     5.6943     0.0440 C.3     
  12 C12           -3.6667     6.4455     0.0544 C.3     
  13 C13           -4.4592     6.0607     1.3054 C.3     
  14 C14           -4.7231     4.5537     1.2984 C.3     
  15 C15           -5.5275     4.1825     0.0509 C.3     
  16 C16           -4.7350     4.5673    -1.2000 C.3     
  17 C17           -3.4021     3.8161    -1.2104 C.3     
  18 C18           -4.4710     6.0743    -1.1930 C.3     
  19 C19           -3.3903     3.8025     1.2880 C.3     
  20 N20           -3.4140     7.8885     0.0611 N.am    
  21 C21           -4.4474     8.7536     0.0707 C.2     
  22 O22           -5.5888     8.3366     0.0738 O.2     
  23 C23           -4.1918    10.2130     0.0774 C.ar    
  24 C24           -5.2643    11.1021     0.0873 C.ar    
  25 C25           -5.0094    12.4643     0.0940 C.ar    
  26 C26           -3.6901    12.8902     0.0905 C.ar    
  27 C27           -2.6728    11.9495     0.0805 C.ar    
  28 N28           -2.9430    10.6624     0.0795 N.ar    
  29 C29           -1.2371    12.4076     0.0767 C.3     
  30 H30           -0.9155    -0.5737     0.0081 H       
  31 H31            1.3100    -1.7144    -0.0193 H       
  32 H32            3.3523    -0.3060    -0.0316 H       
  33 H33           -0.4866     3.9617     0.0259 H       
  34 H34           -1.7608     5.9587     0.9328 H       
  35 H35           -1.7692     5.9684    -0.8471 H       
  36 H36           -3.8862     6.3251     2.1941 H       
  37 H37           -5.4087     6.5959     1.3128 H       
  38 H38           -5.2877     4.2796     2.1896 H       
  39 H39           -5.7155     3.1089     0.0460 H       
  40 H40           -6.4770     4.7177     0.0583 H       
  41 H41           -5.3080     4.3028    -2.0887 H       
  42 H42           -2.8375     4.0902    -2.1016 H       
  43 H43           -3.5901     2.7425    -1.2153 H       
  44 H44           -5.4206     6.6095    -1.1856 H       
  45 H45           -3.9064     6.3484    -2.0842 H       
  46 H46           -3.5783     2.7289     1.2831 H       
  47 H47           -2.8172     4.0669     2.1768 H       
  48 H48           -2.5028     8.2213     0.0586 H       
  49 H49           -6.2799    10.7349     0.0894 H       
  50 H50           -5.8201    13.1778     0.1014 H       
  51 H51           -3.4576    13.9448     0.0951 H       
  52 H52           -0.8864    12.5122     1.1034 H       
  53 H53           -0.6228    11.6731    -0.4441 H       
  54 H54           -1.1638    13.3688    -0.4319 H       
@<TRIPOS>BOND
   1    1    2 ar
   2    1    6 ar
   3    1    7 1
   4    2    3 ar
   5    2   30 1
   6    3    4 ar
   7    3   31 1
   8    4    5 ar
   9    4   32 1
  10    5    6 ar
  11    7    8 2
  12    7    9 am
  13    9   10 1
  14    9   33 1
  15   10   11 1
  16   10   17 1
  17   10   19 1
  18   11   12 1
  19   11   34 1
  20   11   35 1
  21   12   13 1
  22   12   18 1
  23   12   20 1
  24   13   14 1
  25   13   36 1
  26   13   37 1
  27   14   15 1
  28   14   19 1
  29   14   38 1
  30   15   16 1
  31   15   39 1
  32   15   40 1
  33   16   17 1
  34   16   18 1
  35   16   41 1
  36   17   42 1
  37   17   43 1
  38   18   44 1
  39   18   45 1
  40   19   46 1
  41   19   47 1
  42   20   21 am
  43   20   48 1
  44   21   22 2
  45   21   23 1
  46   23   24 ar
  47   23   28 ar
  48   24   25 ar
  49   24   49 1
  50   25   26 ar
  51   25   50 1
  52   26   27 ar
  53   26   51 1
  54   27   28 ar
  55   27   29 1
  56   29   52 1
  57   29   53 1
  58   29   54 1

#	End of record

