#	Name: ASD08070297
#	Creating user name:	WinNT
#	Creation time:	15. 06. 2019 21:14

#	Modifying user name:	WinNT
#	Modification time:	15. 06. 2019 21:14

#	Program:	/corina/corina34_cracker 3.40 0067  02.08.2006

@<TRIPOS>MOLECULE
ASD08070297
  37   38    0    0    0
SMALL
NO_CHARGES


@<TRIPOS>ATOM
   1 C1            -0.0143     1.2041     0.0087 C.2     
   2 C2            -1.3295     1.9397     0.0189 C.3     
   3 C3            -1.4284     2.8250    -1.2251 C.3     
   4 C4            -2.7052     3.6648    -1.1532 C.3     
   5 C5            -2.6124     4.6341     0.0270 C.3     
   6 O6             0.0021    -0.0041     0.0020 O.2     
   7 O7             1.1389     1.8910     0.0013 O.3     
   8 C8            -2.8685     4.4568    -2.4520 C.3     
   9 C9            -2.8635     0.4451     1.1808 C.2     
  10 O10           -2.3413     0.7718     2.2291 O.2     
  11 N11           -2.4300     0.9727     0.0189 N.am    
  12 O12           -6.0781    -2.6597     3.3967 O.3     
  13 C13           -6.7788    -3.7485     2.7672 C.3     
  14 O14           -7.0458    -3.2621     1.4387 O.3     
  15 C15           -6.0579    -2.3601     1.1746 C.ar    
  16 C16           -5.4611    -1.9882     2.3805 C.ar    
  17 C17           -4.4233    -1.0774     2.3847 C.ar    
  18 C18           -3.9724    -0.5292     1.1808 C.ar    
  19 C19           -4.5738    -0.9053    -0.0223 C.ar    
  20 C20           -5.6095    -1.8143    -0.0204 C.ar    
  21 H21           -1.3915     2.5607     0.9126 H       
  22 H22           -0.5618     3.4845    -1.2715 H       
  23 H23           -1.4558     2.1977    -2.1161 H       
  24 H24           -3.5648     3.0084    -1.0174 H       
  25 H25           -1.7528     5.2905    -0.1088 H       
  26 H26           -3.5220     5.2324     0.0782 H       
  27 H27           -2.4960     4.0698     0.9523 H       
  28 H28            1.9569     1.3754    -0.0092 H       
  29 H29           -2.9347     3.7663    -3.2928 H       
  30 H30           -3.7782     5.0552    -2.4008 H       
  31 H31           -2.0090     5.1133    -2.5878 H       
  32 H32           -2.8466     0.7121    -0.8174 H       
  33 H33           -6.1499    -4.6380     2.7300 H       
  34 H34           -7.7105    -3.9588     3.2923 H       
  35 H35           -3.9609    -0.7887     3.3171 H       
  36 H36           -4.2276    -0.4831    -0.9541 H       
  37 H37           -6.0732    -2.1039    -0.9518 H       
@<TRIPOS>BOND
   1    1    6 2
   2    1    7 1
   3    1    2 1
   4    2    3 1
   5    2   11 1
   6    2   21 1
   7    3    4 1
   8    3   22 1
   9    3   23 1
  10    4    5 1
  11    4    8 1
  12    4   24 1
  13    5   25 1
  14    5   26 1
  15    5   27 1
  16    7   28 1
  17    8   29 1
  18    8   30 1
  19    8   31 1
  20    9   10 2
  21    9   11 am
  22    9   18 1
  23   11   32 1
  24   12   13 1
  25   12   16 1
  26   13   14 1
  27   13   33 1
  28   13   34 1
  29   14   15 1
  30   15   16 ar
  31   15   20 ar
  32   16   17 ar
  33   17   18 ar
  34   17   35 1
  35   18   19 ar
  36   19   20 ar
  37   19   36 1
  38   20   37 1

#	End of record

