#	Name: ASD03930248
#	Creating user name:	WinNT
#	Creation time:	15. 06. 2019 20:47

#	Modifying user name:	WinNT
#	Modification time:	15. 06. 2019 20:47

#	Program:	/corina/corina34_cracker 3.40 0067  02.08.2006

@<TRIPOS>MOLECULE
ASD03930248
  48   52    0    0    0
SMALL
NO_CHARGES


@<TRIPOS>ATOM
   1 C1            -0.0171     1.4116     0.0098 C.ar    
   2 C2             0.0021    -0.0041     0.0020 C.ar    
   3 C3            -1.1813    -0.7280     0.0089 C.ar    
   4 C4            -2.4011    -0.0522     0.0237 C.ar    
   5 C5            -2.4203     1.3635     0.0315 C.ar    
   6 C6            -1.2369     2.0875     0.0193 C.ar    
   7 N7             1.1573     2.0922     0.0022 N.2     
   8 N8             2.2916     1.4927    -0.0118 N.2     
   9 N9             2.4173     0.1013    -0.0204 N.am    
  10 C10            1.3127    -0.6809    -0.0141 C.2     
  11 N11           -3.5755    -0.7328     0.0302 N.2     
  12 N12           -4.7098    -0.1333     0.0433 N.2     
  13 N13           -4.8355     1.2581     0.0521 N.am    
  14 C14           -3.7309     2.0403     0.0467 C.2     
  15 C15            3.7475    -0.5124    -0.0368 C.3     
  16 C16            4.5003    -0.0645    -1.2912 C.3     
  17 C17            4.5251    -0.0777     1.2071 C.3     
  18 N18            3.8197    -0.5828    -2.4805 N.pl3   
  19 N19            2.8847     0.0217    -3.1296 N.2     
  20 C20            2.5251    -0.7471    -4.1280 C.2     
  21 N21            3.2781    -1.8453    -4.0622 N.2     
  22 N22            4.0637    -1.7130    -3.0476 N.2     
  23 O23            1.3974    -1.8948    -0.0209 O.2     
  24 O24           -3.8156     3.2542     0.0545 O.2     
  25 C25           -6.1657     1.8718     0.0671 C.3     
  26 C26           -6.9419     1.4373    -1.1778 C.3     
  27 C27           -6.9200     1.4237     1.3205 C.3     
  28 N28           -6.2834     1.9685    -2.3739 N.pl3   
  29 N29           -5.3608     1.3711    -3.0469 N.2     
  30 C30           -5.0198     2.1507    -4.0434 C.2     
  31 N31           -5.7713     3.2481    -3.9518 N.2     
  32 N32           -6.5379     3.1047    -2.9242 N.2     
  33 H33           -1.1581    -1.8078     0.0025 H       
  34 H34           -1.2601     3.1672     0.0258 H       
  35 H35            3.6469    -1.5977    -0.0416 H       
  36 H36            4.5236     1.0245    -1.3316 H       
  37 H37            5.5199    -0.4487    -1.2597 H       
  38 H38            4.6257     1.0076     1.2118 H       
  39 H39            3.9888    -0.3968     2.1007 H       
  40 H40            5.5148    -0.5343     1.1949 H       
  41 H41            1.7641    -0.5322    -4.8636 H       
  42 H42           -6.0651     2.9571     0.0721 H       
  43 H43           -6.9660     0.3488    -1.2295 H       
  44 H44           -7.9606     1.8211    -1.1232 H       
  45 H45           -7.9097     1.8802     1.3317 H       
  46 H46           -7.0206     0.3383     1.3154 H       
  47 H47           -6.3671     1.7332     2.2074 H       
  48 H48           -4.2727     1.9438    -4.7953 H       
@<TRIPOS>BOND
   1    1    2 ar
   2    1    7 1
   3    1    6 ar
   4    2    3 ar
   5    2   10 1
   6    3    4 ar
   7    3   33 1
   8    4    5 ar
   9    4   11 1
  10    5    6 ar
  11    5   14 1
  12    6   34 1
  13    7    8 2
  14    8    9 1
  15    9   10 am
  16    9   15 1
  17   10   23 2
  18   11   12 2
  19   12   13 1
  20   13   14 am
  21   13   25 1
  22   14   24 2
  23   15   16 1
  24   15   17 1
  25   15   35 1
  26   16   18 1
  27   16   36 1
  28   16   37 1
  29   17   38 1
  30   17   39 1
  31   17   40 1
  32   18   19 1
  33   18   22 1
  34   19   20 2
  35   20   21 1
  36   20   41 1
  37   21   22 2
  38   25   26 1
  39   25   27 1
  40   25   42 1
  41   26   28 1
  42   26   43 1
  43   26   44 1
  44   27   45 1
  45   27   46 1
  46   27   47 1
  47   28   29 1
  48   28   32 1
  49   29   30 2
  50   30   31 1
  51   30   48 1
  52   31   32 2

#	End of record

