#	Name: ASD06020082
#	Creating user name:	WinNT
#	Creation time:	15. 06. 2019 21:04

#	Modifying user name:	WinNT
#	Modification time:	15. 06. 2019 21:04

#	Program:	/corina/corina34_cracker 3.40 0067  02.08.2006

@<TRIPOS>MOLECULE
ASD06020082
  38   41    0    0    0
SMALL
NO_CHARGES


@<TRIPOS>ATOM
   1 C1            -0.0166     1.3953     0.0025 C.ar    
   2 C2             0.0031    -0.0035     0.0023 C.ar    
   3 C3             1.2300    -0.6764    -0.0204 C.ar    
   4 C4             2.4027     0.1210    -0.0423 C.ar    
   5 C5             2.2924     1.4756    -0.0404 C.ar    
   6 N6             1.1143     2.0791    -0.0186 N.ar    
   7 S7            -1.2858    -1.2018     0.0258 S.3     
   8 C8            -0.0954    -2.4966     0.0036 C.2     
   9 N9             1.1001    -2.0038    -0.0183 N.2     
  10 N10           -1.2335     2.0703     0.0191 N.pl3   
  11 C11           -0.4152    -3.9398     0.0100 C.ar    
  12 C12            0.6117    -4.8861    -0.0092 C.ar    
  13 C13            0.3054    -6.2327    -0.0031 C.ar    
  14 C14           -1.0148    -6.6450     0.0219 C.ar    
  15 C15           -2.0371    -5.7134     0.0409 C.ar    
  16 C16           -1.7457    -4.3634     0.0410 C.ar    
  17 Cl17          -3.0301    -3.1959     0.0728 Cl      
  18 Cl18           2.2692    -4.3709    -0.0411 Cl      
  19 C19           -1.2583     3.4567     0.1318 C.ar    
  20 C20           -2.4666     4.1438     0.0370 C.ar    
  21 N21           -0.1322     4.1279     0.3352 N.ar    
  22 N22           -2.4855     5.4585     0.1444 N.ar    
  23 C23           -1.3595     6.1240     0.3417 C.ar    
  24 C24           -0.1599     5.4456     0.4417 C.ar    
  25 C25           -1.3858     7.6259     0.4633 C.3     
  26 N26           -1.3420     8.2264    -0.8766 N.3     
  27 H27            3.3767    -0.3452    -0.0600 H       
  28 H28            3.1901     2.0758    -0.0568 H       
  29 H29           -2.0643     1.5742    -0.0478 H       
  30 H30            1.0985    -6.9657    -0.0183 H       
  31 H31           -1.2485    -7.6994     0.0261 H       
  32 H32           -3.0655    -6.0424     0.0604 H       
  33 H33           -3.3862     3.6010    -0.1245 H       
  34 H34            0.7566     5.9925     0.6074 H       
  35 H35           -2.3008     7.9335     0.9696 H       
  36 H36           -0.5223     7.9589     1.0391 H       
  37 H37           -1.3586     9.2338    -0.8221 H       
  38 H38           -0.5353     7.9054    -1.3906 H       
@<TRIPOS>BOND
   1    1    2 ar
   2    1    6 ar
   3    1   10 1
   4    2    3 ar
   5    2    7 1
   6    3    4 ar
   7    3    9 1
   8    4    5 ar
   9    4   27 1
  10    5    6 ar
  11    5   28 1
  12    7    8 1
  13    8    9 2
  14    8   11 1
  15   10   19 1
  16   10   29 1
  17   11   12 ar
  18   11   16 ar
  19   12   13 ar
  20   12   18 1
  21   13   14 ar
  22   13   30 1
  23   14   15 ar
  24   14   31 1
  25   15   16 ar
  26   15   32 1
  27   16   17 1
  28   19   20 ar
  29   19   21 ar
  30   20   22 ar
  31   20   33 1
  32   21   24 ar
  33   22   23 ar
  34   23   24 ar
  35   23   25 1
  36   24   34 1
  37   25   26 1
  38   25   35 1
  39   25   36 1
  40   26   37 1
  41   26   38 1

#	End of record

