#	Name: ASD02508186
#	Creating user name:	WinNT
#	Creation time:	15. 06. 2019 20:23

#	Modifying user name:	WinNT
#	Modification time:	15. 06. 2019 20:23

#	Program:	/corina/corina34_cracker 3.40 0067  02.08.2006

@<TRIPOS>MOLECULE
ASD02508186
  33   35    0    0    0
SMALL
NO_CHARGES


@<TRIPOS>ATOM
   1 C1             0.2699     0.6129    -0.3478 C.ar    
   2 C2             0.0223    -0.7463    -0.5432 C.ar    
   3 C3            -1.2529    -1.2721    -0.4366 C.ar    
   4 C4            -2.3158    -0.4448    -0.1301 C.ar    
   5 C5            -2.0911     0.9069     0.0675 C.ar    
   6 C6            -0.8245     1.4329    -0.0325 C.ar    
   7 S7            -3.9440    -1.1042     0.0074 S.o2    
   8 N8            -4.2119    -1.4180     1.6112 N.am    
   9 C9            -3.4089    -2.3423     2.2863 C.ar    
  10 N10            1.5961     0.9799    -0.4891 N.am    
  11 C11            2.4935     0.0361    -0.7896 C.2     
  12 S12            1.5884    -1.4819    -0.9110 S.3     
  13 O13           -4.8333    -0.0552    -0.3502 O.2     
  14 O14           -3.9236    -2.3638    -0.6500 O.2     
  15 C15            2.0085     2.3747    -0.3134 C.3     
  16 O16            3.6905     0.1889    -0.9485 O.2     
  17 C17           -2.8924    -2.0314     3.5377 C.ar    
  18 C18           -3.1314    -3.5743     1.7093 C.ar    
  19 C19           -2.3376    -4.4867     2.3790 C.ar    
  20 C20           -1.8198    -4.1721     3.6251 C.ar    
  21 C21           -2.0997    -2.9458     4.2036 C.ar    
  22 F22           -1.0446    -5.0650     4.2785 F       
  23 Cl23          -1.9899    -6.0274     1.6587 Cl      
  24 H24           -1.4172    -2.3280    -0.5931 H       
  25 H25           -2.9205     1.5559     0.3072 H       
  26 H26           -0.6714     2.4902     0.1259 H       
  27 H27           -4.9259    -0.9606     2.0822 H       
  28 H28            2.2650     2.5489     0.7315 H       
  29 H29            2.8771     2.5783    -0.9396 H       
  30 H30            1.1901     3.0345    -0.6016 H       
  31 H31           -3.1103    -1.0751     3.9897 H       
  32 H32           -3.5357    -3.8197     0.7384 H       
  33 H33           -1.6951    -2.7025     5.1749 H       
@<TRIPOS>BOND
   1    1    2 ar
   2    1   10 1
   3    1    6 ar
   4    2    3 ar
   5    2   12 1
   6    3    4 ar
   7    3   24 1
   8    4    5 ar
   9    4    7 1
  10    5    6 ar
  11    5   25 1
  12    6   26 1
  13    7    8 am
  14    7   13 2
  15    7   14 2
  16    8    9 1
  17    8   27 1
  18    9   17 ar
  19    9   18 ar
  20   10   11 am
  21   10   15 1
  22   11   12 1
  23   11   16 2
  24   15   28 1
  25   15   29 1
  26   15   30 1
  27   17   21 ar
  28   17   31 1
  29   18   19 ar
  30   18   32 1
  31   19   20 ar
  32   19   23 1
  33   20   21 ar
  34   20   22 1
  35   21   33 1

#	End of record

