#	Name: ASD01230384
#	Creating user name:	WinNT
#	Creation time:	15. 06. 2019 19:14

#	Modifying user name:	WinNT
#	Modification time:	15. 06. 2019 19:14

#	Program:	/corina/corina34_cracker 3.40 0067  02.08.2006

@<TRIPOS>MOLECULE
ASD01230384
  45   49    0    0    0
SMALL
NO_CHARGES


@<TRIPOS>ATOM
   1 C1            -0.0580     1.4115    -0.3905 C.ar    
   2 C2            -0.0494     0.0145    -0.3780 C.ar    
   3 C3             1.1659    -0.6741    -0.1634 C.ar    
   4 C4             2.3515     0.0288     0.0359 C.ar    
   5 C5             2.3350     1.4089     0.0221 C.ar    
   6 C6             1.1268     2.1007    -0.1922 C.ar    
   7 N7            -1.1907    -0.6940    -0.5693 N.2     
   8 N8            -1.2044    -1.9772    -0.5627 N.2     
   9 N9            -0.0574    -2.7490    -0.3600 N.am    
  10 C10            1.1385    -2.1478    -0.1578 C.2     
  11 C11            1.1670     3.5815    -0.1985 C.2     
  12 O12            3.4699     2.1277     0.2116 O.3     
  13 C13            3.5821     3.3678    -0.4863 C.3     
  14 N14            2.3767     4.1779    -0.3094 N.am    
  15 O15            0.1483     4.2384    -0.1075 O.2     
  16 C16            2.4795     5.6381    -0.2522 C.3     
  17 C17            3.4334     6.2392     0.7821 C.3     
  18 C18            3.7968     6.2718    -0.7038 C.3     
  19 O19            2.1514    -2.7985     0.0211 O.2     
  20 C20           -0.1493    -4.2111    -0.3658 C.3     
  21 C21           -0.4260    -4.7103     1.0538 C.3     
  22 C22           -0.5205    -6.2143     1.0479 C.ar    
  23 C23            0.6133    -6.9783     1.2483 C.ar    
  24 C24            0.5261    -8.3604     1.2428 C.ar    
  25 C25           -0.6971    -8.9749     1.0364 C.ar    
  26 C26           -1.8299    -8.2086     0.8362 C.ar    
  27 C27           -1.7426    -6.8292     0.8475 C.ar    
  28 F28            1.6340    -9.1084     1.4382 F       
  29 H29           -0.9796     1.9491    -0.5579 H       
  30 H30            3.2774    -0.5022     0.2004 H       
  31 H31            4.4423     3.9174    -0.1041 H       
  32 H32            3.7276     3.1694    -1.5481 H       
  33 H33            1.5596     6.1829    -0.4648 H       
  34 H34            3.1414     7.1795     1.2495 H       
  35 H35            3.9845     5.5481     1.4199 H       
  36 H36            4.5870     5.6023    -1.0435 H       
  37 H37            3.7438     7.2337    -1.2139 H       
  38 H38           -0.9602    -4.5216    -1.0246 H       
  39 H39            0.7904    -4.6328    -0.7225 H       
  40 H40            0.3850    -4.3998     1.7126 H       
  41 H41           -1.3656    -4.2886     1.4105 H       
  42 H42            1.5671    -6.4979     1.4088 H       
  43 H43           -0.7662   -10.0527     1.0316 H       
  44 H44           -2.7843    -8.6878     0.6752 H       
  45 H45           -2.6283    -6.2312     0.6913 H       
@<TRIPOS>BOND
   1    1    2 ar
   2    1    6 ar
   3    1   29 1
   4    2    3 ar
   5    2    7 1
   6    3    4 ar
   7    3   10 1
   8    4    5 ar
   9    4   30 1
  10    5    6 ar
  11    5   12 1
  12    6   11 1
  13    7    8 2
  14    8    9 1
  15    9   10 am
  16    9   20 1
  17   10   19 2
  18   11   14 am
  19   11   15 2
  20   12   13 1
  21   13   14 1
  22   13   31 1
  23   13   32 1
  24   14   16 1
  25   16   17 1
  26   16   18 1
  27   16   33 1
  28   17   18 1
  29   17   34 1
  30   17   35 1
  31   18   36 1
  32   18   37 1
  33   20   21 1
  34   20   38 1
  35   20   39 1
  36   21   22 1
  37   21   40 1
  38   21   41 1
  39   22   23 ar
  40   22   27 ar
  41   23   24 ar
  42   23   42 1
  43   24   25 ar
  44   24   28 1
  45   25   26 ar
  46   25   43 1
  47   26   27 ar
  48   26   44 1
  49   27   45 1

#	End of record

