#	Name: ASD03082312
#	Creating user name:	WinNT
#	Creation time:	15. 06. 2019 20:27

#	Modifying user name:	WinNT
#	Modification time:	15. 06. 2019 20:27

#	Program:	/corina/corina34_cracker 3.40 0067  02.08.2006

@<TRIPOS>MOLECULE
ASD03082312
  42   45    0    0    0
SMALL
NO_CHARGES


@<TRIPOS>ATOM
   1 C1             0.1505     1.3497     0.2304 C.ar    
   2 C2            -0.9934     1.7420    -0.4514 C.ar    
   3 C3            -2.1457     0.9782    -0.3666 C.ar    
   4 C4            -2.1540    -0.1825     0.4031 C.ar    
   5 C5            -1.0103    -0.5708     1.0817 C.ar    
   6 C6             0.1404     0.1890     0.9928 C.ar    
   7 O7            -3.3799     1.1391    -0.9270 O.3     
   8 C8            -4.0198    -0.1466    -0.8244 C.3     
   9 O9            -3.3949    -0.7489     0.3243 O.3     
  10 F10           -5.3946     0.0040    -0.6137 F       
  11 F11           -3.7777    -0.9091    -1.9721 F       
  12 N12            1.3155     2.1208     0.1448 N.pl3   
  13 C13            1.2264     3.5026    -0.0343 C.2     
  14 N14            0.0971     4.2119    -0.0348 N.2     
  15 N15            2.2419     4.3139    -0.2237 N.2     
  16 N16            1.7125     5.6079    -0.3553 N.pl3   
  17 C17            0.3723     5.4859    -0.2293 C.2     
  18 C18            2.4641     6.8452    -0.5803 C.3     
  19 C19           -0.6125     6.5887    -0.2984 C.ar    
  20 C20           -0.2222     7.9153    -0.0876 C.ar    
  21 C21           -1.1734     8.9124    -0.1613 C.ar    
  22 N22           -2.4338     8.6277    -0.4261 N.ar    
  23 C23           -2.8439     7.3907    -0.6313 C.ar    
  24 C24           -1.9587     6.3336    -0.5821 C.ar    
  25 C25           -4.2977     7.1295    -0.9297 C.3     
  26 C26            2.9590     7.3922     0.7602 C.3     
  27 O27            3.5832     6.5755    -1.4271 O.3     
  28 H28           -0.9849     2.6426    -1.0475 H       
  29 H29           -1.0172    -1.4708     1.6788 H       
  30 H30            1.0306    -0.1161     1.5229 H       
  31 H31            2.1847     1.6953     0.2100 H       
  32 H32            1.8171     7.5818    -1.0567 H       
  33 H33            0.8080     8.1555     0.1300 H       
  34 H34           -0.8819     9.9397     0.0003 H       
  35 H35           -2.3014     5.3235    -0.7511 H       
  36 H36           -4.4608     7.1710    -2.0066 H       
  37 H37           -4.5732     6.1424    -0.5583 H       
  38 H38           -4.9108     7.8860    -0.4399 H       
  39 H39            3.6059     6.6556     1.2366 H       
  40 H40            3.5182     8.3127     0.5928 H       
  41 H41            2.1054     7.5979     1.4061 H       
  42 H42            4.2027     5.9270    -1.0655 H       
@<TRIPOS>BOND
   1    1    2 ar
   2    1   12 1
   3    1    6 ar
   4    2    3 ar
   5    2   28 1
   6    3    4 ar
   7    3    7 1
   8    4    5 ar
   9    4    9 1
  10    5    6 ar
  11    5   29 1
  12    6   30 1
  13    7    8 1
  14    8    9 1
  15    8   10 1
  16    8   11 1
  17   12   13 1
  18   12   31 1
  19   13   14 1
  20   13   15 2
  21   14   17 2
  22   15   16 1
  23   16   17 1
  24   16   18 1
  25   17   19 1
  26   18   26 1
  27   18   27 1
  28   18   32 1
  29   19   20 ar
  30   19   24 ar
  31   20   21 ar
  32   20   33 1
  33   21   22 ar
  34   21   34 1
  35   22   23 ar
  36   23   24 ar
  37   23   25 1
  38   24   35 1
  39   25   36 1
  40   25   37 1
  41   25   38 1
  42   26   39 1
  43   26   40 1
  44   26   41 1
  45   27   42 1

#	End of record

