#	Name: ASD02770035
#	Creating user name:	WinNT
#	Creation time:	15. 06. 2019 20:26

#	Modifying user name:	WinNT
#	Modification time:	15. 06. 2019 20:26

#	Program:	/corina/corina34_cracker 3.40 0067  02.08.2006

@<TRIPOS>MOLECULE
ASD02770035
  45   47    0    0    0
SMALL
NO_CHARGES


@<TRIPOS>ATOM
   1 C1             0.0310     1.4190     0.0186 C.2     
   2 C2            -0.0411     0.0772     0.0087 C.2     
   3 C3             1.1922    -0.7797    -0.0079 C.3     
   4 C4             2.3971     0.0256    -0.4042 C.2     
   5 C5             2.3761     1.3851    -0.3800 C.2     
   6 N6             1.2387     2.0599     0.0048 N.pl3   
   7 C7            -1.3107    -0.5440     0.0146 C.2     
   8 O8            -1.7839    -0.9713    -1.0220 O.2     
   9 O9            -1.9983    -0.6632     1.1698 O.3     
  10 C10            1.4125    -1.3581     1.3661 C.2     
  11 C11            1.4468    -2.6597     1.6561 C.2     
  12 C12            1.6641    -2.9543     2.9911 C.2     
  13 C13            1.8062    -1.8920     3.7852 C.2     
  14 S14            1.6712    -0.4203     2.8314 S.3     
  15 C15           -1.2390     2.2300     0.0389 C.3     
  16 S16            3.8152     2.2902    -0.8432 S.3     
  17 C17            3.2082     3.9808    -0.6214 C.3     
  18 N18            5.6272     6.3274    -2.0622 N.pl3   
  19 N19            4.5260     5.4667    -2.1539 N.2     
  20 C20            4.3021     4.9571    -0.9699 C.2     
  21 C21            5.2514     5.4742    -0.0831 C.2     
  22 C22            6.0576     6.3173    -0.7813 C.2     
  23 O23            7.1058     7.0210    -0.2821 O.3     
  24 C24            3.5900    -0.6513    -0.8155 C.1     
  25 N25            4.5364    -1.1883    -1.1419 N.1     
  26 C26           -3.2749    -1.3016     1.1020 C.3     
  27 C27           -3.8987    -1.3441     2.4984 C.3     
  28 H28            1.0542    -1.5929    -0.7205 H       
  29 H29            1.2945     2.9924     0.2660 H       
  30 H30            1.3147    -3.4256     0.9062 H       
  31 H31            1.7143    -3.9675     3.3616 H       
  32 H32            1.9811    -1.9298     4.8503 H       
  33 H33           -1.5845     2.3384     1.0670 H       
  34 H34           -1.0477     3.2154    -0.3859 H       
  35 H35           -2.0035     1.7228    -0.5497 H       
  36 H36            2.3511     4.1476    -1.2738 H       
  37 H37            2.9086     4.1261     0.4164 H       
  38 H38            6.0151     6.8374    -2.7905 H       
  39 H39            5.3301     5.2448     0.9693 H       
  40 H40            6.8685     7.8977     0.0498 H       
  41 H41           -3.9258    -0.7421     0.4302 H       
  42 H42           -3.1534    -2.3180     0.7273 H       
  43 H43           -4.8725    -1.8311     2.4467 H       
  44 H44           -3.2478    -1.9037     3.1702 H       
  45 H45           -4.0202    -0.3278     2.8731 H       
@<TRIPOS>BOND
   1    1    2 2
   2    1    6 1
   3    1   15 1
   4    2    3 1
   5    2    7 1
   6    3    4 1
   7    3   10 1
   8    3   28 1
   9    4    5 2
  10    4   24 1
  11    5    6 1
  12    5   16 1
  13    6   29 1
  14    7    8 2
  15    7    9 1
  16    9   26 1
  17   10   11 2
  18   10   14 1
  19   11   12 1
  20   11   30 1
  21   12   13 2
  22   12   31 1
  23   13   14 1
  24   13   32 1
  25   15   33 1
  26   15   34 1
  27   15   35 1
  28   16   17 1
  29   17   20 1
  30   17   36 1
  31   17   37 1
  32   18   19 1
  33   18   22 1
  34   18   38 1
  35   19   20 2
  36   20   21 1
  37   21   22 2
  38   21   39 1
  39   22   23 1
  40   23   40 1
  41   24   25 3
  42   26   27 1
  43   26   41 1
  44   26   42 1
  45   27   43 1
  46   27   44 1
  47   27   45 1

#	End of record

