#	Name: ASD01150067
#	Creating user name:	WinNT
#	Creation time:	15. 06. 2019 19:03

#	Modifying user name:	WinNT
#	Modification time:	15. 06. 2019 19:03

#	Program:	/corina/corina34_cracker 3.40 0067  02.08.2006

@<TRIPOS>MOLECULE
ASD01150067
  33   34    0    0    0
SMALL
NO_CHARGES


@<TRIPOS>ATOM
   1 C1            -0.0168     1.3850     0.0097 C.2     
   2 C2             0.0021    -0.0041     0.0020 C.2     
   3 N3            -1.2678    -0.4172     0.0119 N.2     
   4 C4            -2.0703     0.6165     0.0251 C.2     
   5 N5            -1.3471     1.7532     0.0298 N.pl3   
   6 C6            -1.8728     3.1206     0.0440 C.3     
   7 C7            -3.5756     0.5459     0.0391 C.3     
   8 C8            -4.0713     0.5149     1.4862 C.3     
   9 C9             1.2064     2.0895     0.0018 C.2     
  10 N10            2.3649     1.3979    -0.0130 N.am    
  11 C11            2.3684     0.0537    -0.0207 C.2     
  12 N12            1.2244    -0.6561    -0.0127 N.am    
  13 O13            3.4318    -0.5360    -0.0348 O.2     
  14 O14            1.2160     3.3074     0.0078 O.2     
  15 C15            1.2722    -2.1203    -0.0215 C.3     
  16 C16            1.3040    -2.6382     1.4178 C.3     
  17 C17            1.3539    -4.1674     1.4086 C.3     
  18 H18           -1.9973     3.4513     1.0751 H       
  19 H19           -1.1755     3.7833    -0.4685 H       
  20 H20           -2.8368     3.1445    -0.4642 H       
  21 H21           -3.9851     1.4204    -0.4666 H       
  22 H22           -3.9018    -0.3576    -0.4762 H       
  23 H23           -5.1601     0.4638     1.4963 H       
  24 H24           -3.6619    -0.3597     1.9918 H       
  25 H25           -3.7452     1.4183     2.0014 H       
  26 H26            3.2078     1.8779    -0.0185 H       
  27 H27            0.3892    -2.5096    -0.5284 H       
  28 H28            2.1681    -2.4515    -0.5467 H       
  29 H29            2.1870    -2.2489     1.9246 H       
  30 H30            0.4081    -2.3071     1.9429 H       
  31 H31            0.4709    -4.5567     0.9018 H       
  32 H32            2.2498    -4.4985     0.8835 H       
  33 H33            1.3765    -4.5364     2.4340 H       
@<TRIPOS>BOND
   1    1    2 2
   2    1    9 1
   3    1    5 1
   4    2    3 1
   5    2   12 1
   6    3    4 2
   7    4    5 1
   8    4    7 1
   9    5    6 1
  10    6   18 1
  11    6   19 1
  12    6   20 1
  13    7    8 1
  14    7   21 1
  15    7   22 1
  16    8   23 1
  17    8   24 1
  18    8   25 1
  19    9   10 am
  20    9   14 2
  21   10   11 am
  22   10   26 1
  23   11   12 am
  24   11   13 2
  25   12   15 1
  26   15   16 1
  27   15   27 1
  28   15   28 1
  29   16   17 1
  30   16   29 1
  31   16   30 1
  32   17   31 1
  33   17   32 1
  34   17   33 1

#	End of record

