#	Name: ASD03091861
#	Creating user name:	WinNT
#	Creation time:	15. 06. 2019 20:31

#	Modifying user name:	WinNT
#	Modification time:	15. 06. 2019 20:31

#	Program:	/corina/corina34_cracker 3.40 0067  02.08.2006

@<TRIPOS>MOLECULE
ASD03091861
  51   54    0    0    0
SMALL
NO_CHARGES


@<TRIPOS>ATOM
   1 C1            -0.0170     1.3990     0.0097 C.ar    
   2 C2            -1.2302     2.0682     0.0306 C.ar    
   3 C3            -2.4113     1.3476     0.0434 C.ar    
   4 C4            -2.3921    -0.0379     0.0355 C.ar    
   5 C5            -1.1921    -0.7189     0.0148 C.ar    
   6 C6             0.0021    -0.0041     0.0020 C.ar    
   7 O7             1.1634     2.0662     0.0020 O.3     
   8 C8             2.2625     1.4579     0.6803 C.3     
   9 N9             2.4083     0.0563     0.2863 N.am    
  10 C10            1.3145    -0.6822    -0.0142 C.2     
  11 C11           -3.6890    -0.8053     0.0500 C.3     
  12 C12           -4.2048    -0.9467    -1.3589 C.ar    
  13 C13           -5.0429     0.0119    -1.8969 C.ar    
  14 C14           -3.8402    -2.0368    -2.1338 C.ar    
  15 C15           -4.3391    -2.1254    -3.4246 C.ar    
  16 C16           -5.1770    -1.1312    -3.8924 C.ar    
  17 N17           -5.4985    -0.1052    -3.1287 N.ar    
  18 O18            1.4088    -1.8632    -0.2876 O.2     
  19 C19            3.7407    -0.5489     0.2168 C.3     
  20 C20            4.0030    -1.0470    -1.2077 C.3     
  21 O21            4.0072     0.0621    -2.1088 O.3     
  22 C22           -5.7250    -1.2172    -5.2936 C.3     
  23 C23           -3.7303     2.0760     0.0668 C.3     
  24 C24            3.8161    -1.7324     1.1850 C.3     
  25 O25            5.0968    -2.3565     1.0734 O.3     
  26 C26            5.3779    -2.8837    -0.2248 C.3     
  27 C27            5.3652    -1.7464    -1.2495 C.3     
  28 F28           -1.2596     3.4188     0.0388 F       
  29 H29           -1.1796    -1.7988     0.0090 H       
  30 H30            3.1777     1.9963     0.4343 H       
  31 H31            2.0941     1.5120     1.7559 H       
  32 H32           -3.5212    -1.7943     0.4764 H       
  33 H33           -4.4217    -0.2691     0.6531 H       
  34 H34           -5.3280     0.8666    -1.3013 H       
  35 H35           -3.1830    -2.7988    -1.7415 H       
  36 H36           -4.0757    -2.9607    -4.0565 H       
  37 H37            4.4921     0.1925     0.4886 H       
  38 H38            3.2219    -1.7497    -1.4979 H       
  39 H39            4.1748    -0.1801    -3.0299 H       
  40 H40           -6.6708    -1.7590    -5.2812 H       
  41 H41           -5.8872    -0.2120    -5.6827 H       
  42 H42           -5.0135    -1.7429    -5.9304 H       
  43 H43           -4.0632     2.2577    -0.9551 H       
  44 H44           -4.4712     1.4696     0.5879 H       
  45 H45           -3.6107     3.0277     0.5846 H       
  46 H46            3.6726    -1.3771     2.2054 H       
  47 H47            3.0374    -2.4541     0.9382 H       
  48 H48            6.3594    -3.3577    -0.2199 H       
  49 H49            4.6196    -3.6204    -0.4899 H       
  50 H50            5.5357    -2.1525    -2.2466 H       
  51 H51            6.1502    -1.0297    -1.0080 H       
@<TRIPOS>BOND
   1    1    6 ar
   2    1    7 1
   3    1    2 ar
   4    2    3 ar
   5    2   28 1
   6    3    4 ar
   7    3   23 1
   8    4    5 ar
   9    4   11 1
  10    5    6 ar
  11    5   29 1
  12    6   10 1
  13    7    8 1
  14    8    9 1
  15    8   30 1
  16    8   31 1
  17    9   10 am
  18    9   19 1
  19   10   18 2
  20   11   12 1
  21   11   32 1
  22   11   33 1
  23   12   14 ar
  24   12   13 ar
  25   13   17 ar
  26   13   34 1
  27   14   15 ar
  28   14   35 1
  29   15   16 ar
  30   15   36 1
  31   16   22 1
  32   16   17 ar
  33   19   24 1
  34   19   20 1
  35   19   37 1
  36   20   21 1
  37   20   27 1
  38   20   38 1
  39   21   39 1
  40   22   40 1
  41   22   41 1
  42   22   42 1
  43   23   43 1
  44   23   44 1
  45   23   45 1
  46   24   25 1
  47   24   46 1
  48   24   47 1
  49   25   26 1
  50   26   27 1
  51   26   48 1
  52   26   49 1
  53   27   50 1
  54   27   51 1

#	End of record

