#	Name: ASD01885894
#	Creating user name:	WinNT
#	Creation time:	15. 06. 2019 19:50

#	Modifying user name:	WinNT
#	Modification time:	15. 06. 2019 19:50

#	Program:	/corina/corina34_cracker 3.40 0067  02.08.2006

@<TRIPOS>MOLECULE
ASD01885894
  53   56    0    0    0
SMALL
NO_CHARGES


@<TRIPOS>ATOM
   1 C1            -0.0170     1.4037     0.0098 C.ar    
   2 C2             1.2137     2.1079     0.0018 C.ar    
   3 C3             1.1959     3.5259     0.0097 C.ar    
   4 C4            -0.0393     4.1600     0.0249 C.ar    
   5 C5            -1.2086     3.3915     0.0319 C.ar    
   6 N6            -1.1704     2.0724     0.0299 N.ar    
   7 C7             0.0021    -0.0041     0.0020 C.ar    
   8 C8             1.1925    -0.6629    -0.0129 C.ar    
   9 C9             2.3992     0.0334    -0.0203 C.ar    
  10 C10            2.4199     1.3962    -0.0132 C.ar    
  11 C11            1.2060    -2.1698    -0.0211 C.3     
  12 C12           -2.5236     4.0766     0.0481 C.2     
  13 N13           -3.6604     3.3527     0.0551 N.am    
  14 O14           -2.5762     5.2904     0.0552 O.2     
  15 C15            2.4542     4.3053     0.0024 C.ar    
  16 C16            1.4474    -2.6700    -1.4468 C.3     
  17 O17            2.2505    -2.6415     0.8324 O.3     
  18 C18            1.3389    -4.1727    -1.4771 C.ar    
  19 C19            2.6316     5.3386    -0.9188 C.ar    
  20 C20            3.8046     6.0622    -0.9227 C.ar    
  21 C21            4.8095     5.7641    -0.0113 C.ar    
  22 C22            4.6364     4.7364     0.9069 C.ar    
  23 C23            3.4637     4.0124     0.9204 C.ar    
  24 C24            0.1228    -4.7918    -1.7197 C.ar    
  25 N25            0.0660    -6.1137    -1.7388 N.ar    
  26 C26            1.1465    -6.8391    -1.5308 C.ar    
  27 N27            2.3194    -6.2853    -1.2970 N.ar    
  28 C28            2.4540    -4.9691    -1.2687 C.ar    
  29 O29            5.9644     6.4790    -0.0184 O.3     
  30 C30            1.0379    -8.3419    -1.5605 C.3     
  31 C31            6.9558     6.1196     0.9460 C.3     
  32 H32           -0.0971     5.2385     0.0317 H       
  33 H33           -0.9245    -0.5588     0.0083 H       
  34 H34            3.3303    -0.5137    -0.0315 H       
  35 H35            3.3618     1.9246    -0.0195 H       
  36 H36            0.2470    -2.5437     0.3375 H       
  37 H37           -3.6184     2.3837     0.0494 H       
  38 H38           -4.5207     3.8008     0.0657 H       
  39 H39            0.7016    -2.2383    -2.1144 H       
  40 H40            2.4435    -2.3709    -1.7730 H       
  41 H41            3.1341    -2.3469     0.5724 H       
  42 H42            1.8508     5.5707    -1.6280 H       
  43 H43            3.9427     6.8617    -1.6356 H       
  44 H44            5.4200     4.5072     1.6139 H       
  45 H45            3.3298     3.2135     1.6347 H       
  46 H46           -0.7664    -4.2032    -1.8906 H       
  47 H47            3.4179    -4.5215    -1.0766 H       
  48 H48            1.2097    -8.6986    -2.5761 H       
  49 H49            1.7838    -8.7734    -0.8929 H       
  50 H50            0.0418    -8.6408    -1.2341 H       
  51 H51            6.5456     6.2355     1.9492 H       
  52 H52            7.2526     5.0821     0.7925 H       
  53 H53            7.8252     6.7669     0.8319 H       
@<TRIPOS>BOND
   1    1    7 ar
   2    1    2 ar
   3    1    6 ar
   4    2    3 ar
   5    2   10 ar
   6    3    4 ar
   7    3   15 1
   8    4    5 ar
   9    4   32 1
  10    5    6 ar
  11    5   12 1
  12    7    8 ar
  13    7   33 1
  14    8   11 1
  15    8    9 ar
  16    9   10 ar
  17    9   34 1
  18   10   35 1
  19   11   16 1
  20   11   17 1
  21   11   36 1
  22   12   13 am
  23   12   14 2
  24   13   37 1
  25   13   38 1
  26   15   19 ar
  27   15   23 ar
  28   16   18 1
  29   16   39 1
  30   16   40 1
  31   17   41 1
  32   18   24 ar
  33   18   28 ar
  34   19   20 ar
  35   19   42 1
  36   20   21 ar
  37   20   43 1
  38   21   22 ar
  39   21   29 1
  40   22   23 ar
  41   22   44 1
  42   23   45 1
  43   24   25 ar
  44   24   46 1
  45   25   26 ar
  46   26   27 ar
  47   26   30 1
  48   27   28 ar
  49   28   47 1
  50   29   31 1
  51   30   48 1
  52   30   49 1
  53   30   50 1
  54   31   51 1
  55   31   52 1
  56   31   53 1

#	End of record

