#	Name: ASD00960158
#	Creating user name:	WinNT
#	Creation time:	15. 06. 2019 18:53

#	Modifying user name:	WinNT
#	Modification time:	15. 06. 2019 18:53

#	Program:	/corina/corina34_cracker 3.40 0067  02.08.2006

@<TRIPOS>MOLECULE
ASD00960158
  53   54    0    0    0
SMALL
NO_CHARGES


@<TRIPOS>ATOM
   1 C1            -1.3822     3.4896     2.0141 C.3     
   2 C2            -0.8723     2.1803     1.3723 C.3     
   3 O3             0.4588     2.4916     0.9064 O.3     
   4 C4             0.3661     3.8214     0.3507 C.3     
   5 C5             1.7500     4.4711     0.2904 C.3     
   6 C6            -0.8246     1.0772     2.3979 C.2     
   7 C7             0.2068     0.8273     3.2382 C.2     
   8 N8            -1.8113     0.1752     2.6343 N.pl3   
   9 C9            -1.4027    -0.6703     3.6396 C.2     
  10 C10           -0.1405    -0.2746     4.0282 C.2     
  11 C11           -0.5515     4.5966     1.3271 C.3     
  12 C12           -1.1239     3.4835     3.5221 C.3     
  13 O13            2.5659     3.7678    -0.6485 O.3     
  14 *14            3.8691     4.2898    -0.7799 Du      
  15 O15           -1.4019     5.4934     0.6097 O.3     
  16 *16           -0.8667     6.7883     0.4518 Du      
  17 C17           -2.1532    -1.7608     4.1855 C.1     
  18 N18           -2.7486    -2.6259     4.6186 N.1     
  19 Si19          -5.5049    -1.9429    -2.1562 Si      
  20 C20           -3.9335    -1.7744    -1.1697 C.3     
  21 C21           -4.1803    -0.8572     0.0298 C.3     
  22 O22           -2.9750    -0.7279     0.7865 O.3     
  23 C23           -6.0430    -0.2641    -2.7585 C.3     
  24 C24           -5.2044    -3.0597    -3.6167 C.3     
  25 C25           -6.8386    -2.6734    -1.0799 C.3     
  26 C26           -3.0974     0.1130     1.9354 C.3     
  27 O27           -2.7744     3.6694     1.7466 O.3     
  28 *28           -3.3079     4.8674     2.2646 Du      
  29 H29           -1.5099     1.8944     0.5357 H       
  30 H30           -0.0816     3.7872    -0.6426 H       
  31 H31            1.6501     5.5106    -0.0222 H       
  32 H32            2.2134     4.4311     1.2762 H       
  33 H33            1.1335     1.3796     3.2895 H       
  34 H34            0.4663    -0.7297     4.7970 H       
  35 H35            0.0438     5.1386     2.0618 H       
  36 H36           -1.6717     2.6606     3.9812 H       
  37 H37           -0.0571     3.3581     3.7075 H       
  38 H38           -1.4589     4.4275     3.9520 H       
  39 H39           -3.6187    -2.7566    -0.8172 H       
  40 H40           -3.1532    -1.3470    -1.7994 H       
  41 H41           -4.4952     0.1251    -0.3226 H       
  42 H42           -4.9606    -1.2846     0.6595 H       
  43 H43           -5.2627     0.1633    -3.3883 H       
  44 H44           -6.9624    -0.3627    -3.3357 H       
  45 H45           -6.2188     0.3894    -1.9040 H       
  46 H46           -4.8895    -4.0420    -3.2643 H       
  47 H47           -6.1237    -3.1583    -4.1939 H       
  48 H48           -4.4241    -2.6323    -4.2465 H       
  49 H49           -7.0144    -2.0199    -0.2254 H       
  50 H50           -7.7579    -2.7720    -1.6571 H       
  51 H51           -6.5237    -3.6556    -0.7275 H       
  52 H52           -3.8553    -0.2943     2.6047 H       
  53 H53           -3.3898     1.1153     1.6226 H       
@<TRIPOS>BOND
   1    1   12 1
   2    1   27 1
   3    1    2 1
   4    1   11 1
   5    2    3 1
   6    2    6 1
   7    2   29 1
   8    3    4 1
   9    4   11 1
  10    4    5 1
  11    4   30 1
  12    5   13 1
  13    5   31 1
  14    5   32 1
  15    6    7 2
  16    6    8 1
  17    7   10 1
  18    7   33 1
  19    8    9 1
  20    8   26 1
  21    9   10 2
  22    9   17 1
  23   10   34 1
  24   11   15 1
  25   11   35 1
  26   12   36 1
  27   12   37 1
  28   12   38 1
  29   13   14 1
  30   15   16 1
  31   17   18 3
  32   19   20 1
  33   19   23 1
  34   19   24 1
  35   19   25 1
  36   20   21 1
  37   20   39 1
  38   20   40 1
  39   21   22 1
  40   21   41 1
  41   21   42 1
  42   22   26 1
  43   23   43 1
  44   23   44 1
  45   23   45 1
  46   24   46 1
  47   24   47 1
  48   24   48 1
  49   25   49 1
  50   25   50 1
  51   25   51 1
  52   26   52 1
  53   26   53 1
  54   27   28 1

#	End of record

