#	Name: ASD03910146
#	Creating user name:	WinNT
#	Creation time:	15. 06. 2019 20:47

#	Modifying user name:	WinNT
#	Modification time:	15. 06. 2019 20:47

#	Program:	/corina/corina34_cracker 3.40 0067  02.08.2006

@<TRIPOS>MOLECULE
ASD03910146
  45   43    0    0    0
SMALL
NO_CHARGES


@<TRIPOS>ATOM
   1 C1            -0.0186     1.5200     0.0104 C.3     
   2 C2             0.0021    -0.0041     0.0020 C.3     
   3 C3            -1.3620    -0.5831     0.3909 C.3     
   4 C4            -1.8396    -0.0566     1.7156 C.3     
   5 C5            -1.9509     1.4529     1.6465 C.3     
   6 C6            -0.6667     2.1036     1.2770 C.3     
   7 O7            -3.1812     1.9560     1.2698 O.3     
   8 P8            -3.9173     3.1646     2.0952 P.3     
   9 O9            -2.9540     4.4271     1.9524 O.3     
  10 P10           -1.3370     4.5613     2.1570 P.3     
  11 O11           -0.6644     3.5337     1.1262 O.3     
  12 O12           -1.3917    -1.9822     0.2432 O.3     
  13 P13           -2.7394    -2.8512     0.0663 P.3     
  14 O14           -3.2826    -3.1731     1.5827 O.3     
  15 P15           -3.0377    -2.1572     2.8490 P.3     
  16 O16           -2.9947    -0.6658     2.2372 O.3     
  17 O17            1.3087     2.0518     0.0006 O.3     
  18 P18            2.3635     1.9673    -1.2021 P.3     
  19 O19            2.6838     0.3944    -1.4589 O.3     
  20 P20            1.6797    -0.7678    -1.9646 P.3     
  21 O21            0.2235    -0.4776    -1.3429 O.3     
  22 O22            1.7573     2.5947    -2.4772 O.co2   
  23 O23            3.6613     2.7111    -0.8155 O.co2   
  24 O24            1.6003    -0.7535    -3.5075 O.co2   
  25 O25            2.1886    -2.1439    -1.4805 O.co2   
  26 O26           -0.8998     5.9427     1.8552 O.2     
  27 O27           -0.9369     4.1707     3.6668 O.3     
  28 O28           -5.2976     3.4728     1.4732 O.co2   
  29 O29           -4.0739     2.7776     3.5827 O.co2   
  30 O30           -3.7962    -2.0382    -0.7143 O.co2   
  31 O31           -2.4270    -4.1695    -0.6763 O.co2   
  32 O32           -4.1992    -2.2816     3.8602 O.co2   
  33 O33           -1.6950    -2.4854     3.5393 O.co2   
  34 H34           -0.5588     1.8794    -0.8654 H       
  35 H35            0.7739    -0.3730     0.6775 H       
  36 H36           -2.0648    -0.2037    -0.3510 H       
  37 H37           -1.0452    -0.2681     2.4314 H       
  38 H38           -1.9797     1.6758     2.7131 H       
  39 H39            0.0278     1.8960     2.0910 H       
  40 H40           -1.3514     4.7274     4.3401 H       
  41 Na41           8.6613    10.9427     9.3401 Du      
  42 Na42          13.6613    15.9427    14.3401 Du      
  43 Na43          18.6613    20.9427    19.3401 Du      
  44 Na44          23.6613    25.9427    24.3401 Du      
  45 Na45          28.6613    30.9427    29.3401 Du      
@<TRIPOS>BOND
   1    1    2 1
   2    1   17 1
   3    1    6 1
   4    1   34 1
   5    2    3 1
   6    2   21 1
   7    2   35 1
   8    3    4 1
   9    3   12 1
  10    3   36 1
  11    4    5 1
  12    4   16 1
  13    4   37 1
  14    5    6 1
  15    5    7 1
  16    5   38 1
  17    6   11 1
  18    6   39 1
  19    7    8 1
  20    8    9 1
  21    8   28 ar
  22    8   29 ar
  23    9   10 1
  24   10   11 1
  25   10   26 2
  26   10   27 1
  27   12   13 1
  28   13   14 1
  29   13   30 ar
  30   13   31 ar
  31   14   15 1
  32   15   16 1
  33   15   32 ar
  34   15   33 ar
  35   17   18 1
  36   18   19 1
  37   18   22 ar
  38   18   23 ar
  39   19   20 1
  40   20   21 1
  41   20   24 ar
  42   20   25 ar
  43   27   40 1

#	End of record

