#	Name: ASD05430370
#	Creating user name:	WinNT
#	Creation time:	15. 06. 2019 21:00

#	Modifying user name:	WinNT
#	Modification time:	15. 06. 2019 21:00

#	Program:	/corina/corina34_cracker 3.40 0067  02.08.2006

@<TRIPOS>MOLECULE
ASD05430370
  62   66    0    0    0
SMALL
NO_CHARGES


@<TRIPOS>ATOM
   1 C1            -0.0911     1.3950     0.1901 C.ar    
   2 C2             0.0436     0.1241    -0.3684 C.ar    
   3 C3            -1.0454    -0.4921    -0.9717 C.ar    
   4 C4            -2.2636     0.1494    -1.0216 C.ar    
   5 C5            -2.4062     1.4241    -0.4636 C.ar    
   6 C6            -1.3114     2.0420     0.1487 C.ar    
   7 C7            -4.8472     1.4000    -0.4384 C.2     
   8 C8            -3.7068     2.1111    -0.5160 C.2     
   9 N9            -7.3302     1.2911    -0.3742 N.pl3   
  10 C10           -6.1777     2.0128    -0.6675 C.2     
  11 C11           -8.9025     2.6377     0.9297 C.ar    
  12 C12           -9.9657     3.5085     1.0797 C.ar    
  13 C13           -8.2411     2.1542     2.0432 C.ar    
  14 C14           -8.6425     2.5407     3.3079 C.ar    
  15 C15           -9.7072     3.4128     3.4594 C.ar    
  16 C16          -10.3686     3.8967     2.3434 C.ar    
  17 F17          -10.1008     3.7909     4.6953 F       
  18 O18            0.9768     1.9949     0.7801 O.3     
  19 C19            0.7669     3.2965     1.3314 C.3     
  20 C20            1.5060    -1.8158     0.1047 C.2     
  21 N21            1.2803    -0.5324    -0.3213 N.pl3   
  22 C22            2.8283    -2.0401    -0.0162 C.2     
  23 N23            3.3991    -0.9278    -0.5021 N.2     
  24 C24            2.4824    -0.0175    -0.6890 C.2     
  25 C25            3.5434    -3.3195     0.3343 C.3     
  26 N26           -7.3238    -0.0444    -0.0935 N.3     
  27 C27           -6.1235    -0.4113     0.6749 C.3     
  28 C28           -4.8552    -0.0829    -0.1170 C.3     
  29 C29           -8.4681     2.2103    -0.4486 C.3     
  30 C30           -7.8787     3.4047    -1.2343 C.3     
  31 N31           -6.4245     3.1870    -1.1512 N.2     
  32 C32           -8.5477    -0.4390     0.6166 C.3     
  33 C33           -9.6307     1.5759    -1.2147 C.3     
  34 O34          -10.6649     2.5446    -1.3987 O.3     
  35 H35           -0.9368    -1.4763    -1.4030 H       
  36 H36           -3.1084    -0.3318    -1.4919 H       
  37 H37           -1.4172     3.0262     0.5808 H       
  38 H38           -3.7463     3.1856    -0.6166 H       
  39 H39          -10.4814     3.8858     0.2091 H       
  40 H40           -7.4107     1.4740     1.9248 H       
  41 H41           -8.1261     2.1623     4.1777 H       
  42 H42          -11.1990     4.5773     2.4604 H       
  43 H43            0.4470     3.9777     0.5429 H       
  44 H44           -0.0027     3.2451     2.1015 H       
  45 H45            1.6964     3.6594     1.7701 H       
  46 H46            0.7660    -2.5118     0.4713 H       
  47 H47            2.6514     0.9781    -1.0719 H       
  48 H48            3.5699    -3.9718    -0.5386 H       
  49 H49            4.5619    -3.0920     0.6489 H       
  50 H50            3.0155    -3.8201     1.1460 H       
  51 H51           -6.1123     0.1459     1.6116 H       
  52 H52           -6.1489    -1.4790     0.8930 H       
  53 H53           -4.8442    -0.6573    -1.0433 H       
  54 H54           -3.9776    -0.3320     0.4795 H       
  55 H55           -8.2113     3.3831    -2.2721 H       
  56 H56           -8.1531     4.3479    -0.7618 H       
  57 H57           -9.3567    -0.5741    -0.1012 H       
  58 H58           -8.3737    -1.3744     1.1484 H       
  59 H59           -8.8208     0.3389     1.3296 H       
  60 H60           -9.2795     1.2301    -2.1869 H       
  61 H61          -10.0212     0.7307    -0.6478 H       
  62 H62          -11.4355     2.2110    -1.8783 H       
@<TRIPOS>BOND
   1    1    2 ar
   2    1   18 1
   3    1    6 ar
   4    2    3 ar
   5    2   21 1
   6    3    4 ar
   7    3   35 1
   8    4    5 ar
   9    4   36 1
  10    5    6 ar
  11    5    8 1
  12    6   37 1
  13    7    8 2
  14    7   28 1
  15    7   10 1
  16    8   38 1
  17    9   10 1
  18    9   29 1
  19    9   26 1
  20   10   31 2
  21   11   12 ar
  22   11   13 ar
  23   11   29 1
  24   12   16 ar
  25   12   39 1
  26   13   14 ar
  27   13   40 1
  28   14   15 ar
  29   14   41 1
  30   15   16 ar
  31   15   17 1
  32   16   42 1
  33   18   19 1
  34   19   43 1
  35   19   44 1
  36   19   45 1
  37   20   21 1
  38   20   22 2
  39   20   46 1
  40   21   24 1
  41   22   23 1
  42   22   25 1
  43   23   24 2
  44   24   47 1
  45   25   48 1
  46   25   49 1
  47   25   50 1
  48   26   27 1
  49   26   32 1
  50   27   28 1
  51   27   51 1
  52   27   52 1
  53   28   53 1
  54   28   54 1
  55   29   30 1
  56   29   33 1
  57   30   31 1
  58   30   55 1
  59   30   56 1
  60   32   57 1
  61   32   58 1
  62   32   59 1
  63   33   34 1
  64   33   60 1
  65   33   61 1
  66   34   62 1

#	End of record

