#	Name: ASD08150104
#	Creating user name:	WinNT
#	Creation time:	15. 06. 2019 21:15

#	Modifying user name:	WinNT
#	Modification time:	15. 06. 2019 21:15

#	Program:	/corina/corina34_cracker 3.40 0067  02.08.2006

@<TRIPOS>MOLECULE
ASD08150104
  50   54    0    0    0
SMALL
NO_CHARGES


@<TRIPOS>ATOM
   1 O1            -0.0161     1.3326     0.0094 O.3     
   2 C2             0.0021    -0.0041     0.0020 C.2     
   3 N3             1.2335    -0.5302    -0.0124 N.am    
   4 C4             2.2214     0.5579    -0.0153 C.3     
   5 C5             1.3476     1.8421    -0.0009 C.3     
   6 O6            -1.0072    -0.6804     0.0082 O.2     
   7 C7             3.0830    -3.5955     0.0542 C.ar    
   8 N8             2.1428    -4.5226    -0.0400 N.ar    
   9 C9             0.8569    -4.1831    -0.1297 C.ar    
  10 C10            0.5112    -2.8323    -0.1231 C.ar    
  11 C11            1.5301    -1.8889    -0.0225 C.ar    
  12 N12            2.7904    -2.3037     0.0634 N.ar    
  13 C13           -2.0849    -7.1140    -0.4259 C.ar    
  14 N14           -0.8144    -7.4831    -0.3385 N.ar    
  15 C15            0.1476    -6.5833    -0.2433 C.ar    
  16 C16           -0.1904    -5.2265    -0.2355 C.ar    
  17 C17           -1.5412    -4.8793    -0.3295 C.ar    
  18 N18           -2.4449    -5.8383    -0.4218 N.ar    
  19 C19            1.5887    -7.0126    -0.1440 C.3     
  20 F20            1.6723    -8.4018    -0.2868 F       
  21 F21            2.3303    -6.3943    -1.1563 F       
  22 F22            2.1012    -6.6404     1.1034 F       
  23 N23            4.4071    -3.9868     0.1515 N.3     
  24 C24            4.5265    -5.4519     0.1303 C.3     
  25 C25            6.0070    -5.8387     0.1795 C.3     
  26 O26            6.6063    -5.2634     1.3436 O.3     
  27 C27            6.5089    -3.8375     1.3965 C.3     
  28 C28            5.0335    -3.4305     1.3596 C.3     
  29 N29           -3.0612    -8.0869    -0.5299 N.pl3   
  30 C30            2.9230     0.6021    -1.3900 C.3     
  31 O31            2.0656     1.4164    -2.2186 O.3     
  32 C32            1.6331     2.5002    -1.3682 C.3     
  33 H33            2.9149     0.5032     0.8238 H       
  34 H34            1.5617     2.4941     0.8459 H       
  35 H35           -0.5218    -2.5253    -0.1946 H       
  36 H36           -1.8416    -3.8419    -0.3270 H       
  37 H37            4.0117    -5.8716     0.9946 H       
  38 H38            4.0790    -5.8403    -0.7846 H       
  39 H39            6.0984    -6.9240     0.2216 H       
  40 H40            6.5107    -5.4646    -0.7118 H       
  41 H41            6.9634    -3.4756     2.3187 H       
  42 H42            7.0272    -3.4053     0.5405 H       
  43 H43            4.9562    -2.3434     1.3420 H       
  44 H44            4.5268    -3.8178     2.2435 H       
  45 H45           -2.8126    -9.0244    -0.5382 H       
  46 H46           -3.9949    -7.8320    -0.5946 H       
  47 H47            3.9079     1.0600    -1.2985 H       
  48 H48            3.0080    -0.4024    -1.8047 H       
  49 H49            0.7266     2.9559    -1.7664 H       
  50 H50            2.4227     3.2455    -1.2728 H       
@<TRIPOS>BOND
   1    1    2 1
   2    1    5 1
   3    2    3 am
   4    2    6 2
   5    3   11 1
   6    3    4 1
   7    4    5 1
   8    4   30 1
   9    4   33 1
  10    5   32 1
  11    5   34 1
  12    7    8 ar
  13    7   12 ar
  14    7   23 1
  15    8    9 ar
  16    9   10 ar
  17    9   16 1
  18   10   11 ar
  19   10   35 1
  20   11   12 ar
  21   13   14 ar
  22   13   18 ar
  23   13   29 1
  24   14   15 ar
  25   15   16 ar
  26   15   19 1
  27   16   17 ar
  28   17   18 ar
  29   17   36 1
  30   19   20 1
  31   19   21 1
  32   19   22 1
  33   23   24 1
  34   23   28 1
  35   24   25 1
  36   24   37 1
  37   24   38 1
  38   25   26 1
  39   25   39 1
  40   25   40 1
  41   26   27 1
  42   27   28 1
  43   27   41 1
  44   27   42 1
  45   28   43 1
  46   28   44 1
  47   29   45 1
  48   29   46 1
  49   30   31 1
  50   30   47 1
  51   30   48 1
  52   31   32 1
  53   32   49 1
  54   32   50 1

#	End of record

