#	Name: ASD09530054
#	Creating user name:	WinNT
#	Creation time:	15. 06. 2019 21:22

#	Modifying user name:	WinNT
#	Modification time:	15. 06. 2019 21:22

#	Program:	/corina/corina34_cracker 3.40 0067  02.08.2006

@<TRIPOS>MOLECULE
ASD09530054
  55   58    0    0    0
SMALL
NO_CHARGES


@<TRIPOS>ATOM
   1 C1            -0.0168     1.3906     0.0097 C.ar    
   2 C2             0.0021    -0.0041     0.0020 C.ar    
   3 C3             1.2225    -0.6792    -0.0133 C.ar    
   4 C4             2.4029     0.0352    -0.0207 C.ar    
   5 C5             2.3776     1.4184    -0.0130 C.ar    
   6 C6             1.1703     2.0938     0.0021 C.ar    
   7 C7             3.6705     2.1927    -0.0212 C.3     
   8 C8             4.0879     2.4584    -1.4447 C.2     
   9 N9             5.2223     3.1404    -1.6981 N.am    
  10 O10            3.4029     2.0584    -2.3622 O.2     
  11 C11            5.6281     3.3987    -3.0819 C.3     
  12 C12            6.5044     4.6239    -3.1281 C.ar    
  13 N13            7.1831     4.9790    -2.0546 N.ar    
  14 C14            7.9625     6.0420    -2.0462 C.ar    
  15 C15            8.0958     6.8312    -3.1796 C.ar    
  16 C16            7.3940     6.4855    -4.3297 C.ar    
  17 C17            6.5904     5.3569    -4.2966 C.ar    
  18 O18            8.9002     7.9266    -3.1660 O.3     
  19 C19            9.5856     8.2131    -1.9453 C.3     
  20 C20           10.4359     9.4729    -2.1214 C.3     
  21 C21            6.4054     2.1951    -3.6186 C.3     
  22 F22            9.6090    10.5506    -2.4559 F       
  23 F23           11.1070     9.7533    -0.9264 F       
  24 F24           11.3692     9.2665    -3.1430 F       
  25 C25           -1.2686    -0.7650     0.0106 C.ar    
  26 C26           -2.2662    -0.4820     0.9327 C.ar    
  27 C27           -3.4481    -1.2143     0.9153 C.ar    
  28 N28           -3.6527    -2.1745     0.0457 N.ar    
  29 C29           -2.7365    -2.5003    -0.8699 C.ar    
  30 C30           -1.5068    -1.8028    -0.9281 C.ar    
  31 C31           -2.9716    -3.5344    -1.7981 C.ar    
  32 C32           -1.9955    -3.8191    -2.7093 C.ar    
  33 C33           -0.8056    -3.0942    -2.7043 C.ar    
  34 N34           -0.5935    -2.1282    -1.8426 N.ar    
  35 H35           -0.9587     1.9190     0.0170 H       
  36 H36            1.2435    -1.7590    -0.0189 H       
  37 H37            3.3485    -0.4864    -0.0322 H       
  38 H38            1.1569     3.1737     0.0081 H       
  39 H39            3.5299     3.1401     0.4991 H       
  40 H40            4.4443     1.6130     0.4821 H       
  41 H41            5.7702     3.4603    -0.9643 H       
  42 H42            4.7424     3.5623    -3.6958 H       
  43 H43            8.5026     6.3016    -1.1477 H       
  44 H44            7.4768     7.0795    -5.2278 H       
  45 H45            6.0312     5.0586    -5.1711 H       
  46 H46            8.8585     8.3739    -1.1494 H       
  47 H47           10.2299     7.3734    -1.6847 H       
  48 H48            5.7716     1.3090    -3.5852 H       
  49 H49            6.7073     2.3873    -4.6481 H       
  50 H50            7.2912     2.0316    -3.0047 H       
  51 H51           -2.1250     0.3031     1.6608 H       
  52 H52           -4.2182    -0.9865     1.6375 H       
  53 H53           -3.8993    -4.0873    -1.7887 H       
  54 H54           -2.1455    -4.6062    -3.4334 H       
  55 H55           -0.0418    -3.3299    -3.4306 H       
@<TRIPOS>BOND
   1    1    2 ar
   2    1    6 ar
   3    1   35 1
   4    2    3 ar
   5    2   25 1
   6    3    4 ar
   7    3   36 1
   8    4    5 ar
   9    4   37 1
  10    5    6 ar
  11    5    7 1
  12    6   38 1
  13    7    8 1
  14    7   39 1
  15    7   40 1
  16    8    9 am
  17    8   10 2
  18    9   11 1
  19    9   41 1
  20   11   12 1
  21   11   21 1
  22   11   42 1
  23   12   13 ar
  24   12   17 ar
  25   13   14 ar
  26   14   15 ar
  27   14   43 1
  28   15   16 ar
  29   15   18 1
  30   16   17 ar
  31   16   44 1
  32   17   45 1
  33   18   19 1
  34   19   20 1
  35   19   46 1
  36   19   47 1
  37   20   22 1
  38   20   23 1
  39   20   24 1
  40   21   48 1
  41   21   49 1
  42   21   50 1
  43   25   26 ar
  44   25   30 ar
  45   26   27 ar
  46   26   51 1
  47   27   28 ar
  48   27   52 1
  49   28   29 ar
  50   29   30 ar
  51   29   31 ar
  52   30   34 ar
  53   31   32 ar
  54   31   53 1
  55   32   33 ar
  56   32   54 1
  57   33   34 ar
  58   33   55 1

#	End of record

