#	Name: ASD01120174
#	Creating user name:	WinNT
#	Creation time:	15. 06. 2019 18:59

#	Modifying user name:	WinNT
#	Modification time:	15. 06. 2019 18:59

#	Program:	/corina/corina34_cracker 3.40 0067  02.08.2006

@<TRIPOS>MOLECULE
ASD01120174
  35   36    0    0    0
SMALL
NO_CHARGES


@<TRIPOS>ATOM
   1 C1             0.0086     1.4485     0.3683 C.ar    
   2 C2             0.0281     0.0732     0.5710 C.ar    
   3 C3             1.2208    -0.6172     0.5877 C.ar    
   4 C4             2.4190     0.0659     0.4002 C.ar    
   5 C5             2.3972     1.4593     0.1949 C.ar    
   6 C6             1.1711     2.1400     0.1821 C.ar    
   7 N7             3.7339    -0.3342     0.3650 N.pl3   
   8 C8             4.5301     0.7737     0.1433 C.2     
   9 C9             3.7408     1.8749     0.0366 C.2     
  10 C10            5.9963     0.7628     0.0399 C.2     
  11 Cl11           1.1316     3.8571    -0.0705 Cl      
  12 Cl12          -1.4640    -0.7824     0.8059 Cl      
  13 C13            4.2117     3.2854    -0.2074 C.3     
  14 C14            4.2686     3.5508    -1.7131 C.3     
  15 C15            4.7396     4.9614    -1.9572 C.2     
  16 O16            6.6080     1.8110    -0.0444 O.2     
  17 N17            6.6630    -0.4085     0.0386 N.am    
  18 O18            4.8667     5.4188    -3.2127 O.3     
  19 O19            5.0027     5.6806    -1.0226 O.2     
  20 C20            8.1110    -0.4269    -0.1837 C.3     
  21 C21            5.9398    -1.6633     0.2594 C.3     
  22 H22           -0.9349     1.9739     0.3535 H       
  23 H23            1.2257    -1.6855     0.7463 H       
  24 H24            4.0507    -1.2441     0.4778 H       
  25 H25            3.5187     3.9857     0.2590 H       
  26 H26            5.2048     3.4164     0.2224 H       
  27 H27            4.9616     2.8506    -2.1796 H       
  28 H28            3.2755     3.4199    -2.1429 H       
  29 H29            5.1721     6.3301    -3.3191 H       
  30 H30            8.6265    -0.3436     0.7731 H       
  31 H31            8.3924    -1.3621    -0.6678 H       
  32 H32            8.3913     0.4112    -0.8217 H       
  33 H33            5.1793    -1.7848    -0.5119 H       
  34 H34            6.6390    -2.4983     0.2150 H       
  35 H35            5.4631    -1.6403     1.2393 H       
@<TRIPOS>BOND
   1    1    2 ar
   2    1    6 ar
   3    1   22 1
   4    2    3 ar
   5    2   12 1
   6    3    4 ar
   7    3   23 1
   8    4    5 ar
   9    4    7 1
  10    5    6 ar
  11    5    9 1
  12    6   11 1
  13    7    8 1
  14    7   24 1
  15    8    9 2
  16    8   10 1
  17    9   13 1
  18   10   16 2
  19   10   17 am
  20   13   14 1
  21   13   25 1
  22   13   26 1
  23   14   15 1
  24   14   27 1
  25   14   28 1
  26   15   18 1
  27   15   19 2
  28   17   20 1
  29   17   21 1
  30   18   29 1
  31   20   30 1
  32   20   31 1
  33   20   32 1
  34   21   33 1
  35   21   34 1
  36   21   35 1

#	End of record

