#	Name: ASD00170072
#	Creating user name:	WinNT
#	Creation time:	15. 06. 2019 18:31

#	Modifying user name:	WinNT
#	Modification time:	15. 06. 2019 18:31

#	Program:	/corina/corina34_cracker 3.40 0067  02.08.2006

@<TRIPOS>MOLECULE
ASD00170072
  45   48    0    0    0
SMALL
NO_CHARGES


@<TRIPOS>ATOM
   1 C1            -0.0106     1.3383    -0.1035 C.2     
   2 C2             0.0146     0.0004    -0.1308 C.2     
   3 C3            -1.3041    -0.5834     0.0237 C.2     
   4 C4            -2.2966     0.3544     0.1641 C.2     
   5 S5            -1.6478     1.9282     0.1175 S.3     
   6 C6             1.2258     2.2051    -0.2410 C.3     
   7 N7             2.4127     1.3699    -0.0044 N.3     
   8 C8             2.3788     0.1592    -0.8373 C.3     
   9 C9             1.3011    -0.7915    -0.3070 C.3     
  10 N10           -3.6356     0.0619     0.3261 N.pl3   
  11 C11           -1.5513    -2.0250     0.0288 C.2     
  12 C12           -1.5545    -2.7702     1.3061 C.ar    
  13 C13            3.6472     2.1324    -0.2338 C.3     
  14 C14            3.7638     3.2224     0.8003 C.ar    
  15 C15            4.4130     2.9747     1.9953 C.ar    
  16 C16            4.5200     3.9745     2.9439 C.ar    
  17 C17            3.9782     5.2222     2.6972 C.ar    
  18 C18            3.3299     5.4701     1.5018 C.ar    
  19 C19            3.2266     4.4715     0.5515 C.ar    
  20 C20           -1.8835    -4.1268     1.3252 C.ar    
  21 C21           -1.8848    -4.8164     2.5194 C.ar    
  22 C22           -1.5610    -4.1656     3.6984 C.ar    
  23 C23           -1.2337    -2.8197     3.6857 C.ar    
  24 C24           -1.2229    -2.1212     2.4968 C.ar    
  25 O25           -1.7545    -2.6117    -1.0188 O.2     
  26 Cl26          -1.5659    -5.0401     5.1981 Cl      
  27 H27            1.2684     2.6251    -1.2460 H       
  28 H28            1.1922     3.0097     0.4935 H       
  29 H29            2.1477     0.4323    -1.8669 H       
  30 H30            3.3498    -0.3347    -0.8008 H       
  31 H31            1.6135    -1.2029     0.6528 H       
  32 H32            1.1410    -1.6003    -1.0199 H       
  33 H33           -3.9420    -0.8566     0.2671 H       
  34 H34           -4.2703     0.7747     0.4989 H       
  35 H35            4.5058     1.4653    -0.1571 H       
  36 H36            3.6201     2.5768    -1.2287 H       
  37 H37            4.8363     2.0000     2.1880 H       
  38 H38            5.0266     3.7809     3.8779 H       
  39 H39            4.0612     6.0031     3.4386 H       
  40 H40            2.9063     6.4447     1.3092 H       
  41 H41            2.7201     4.6652    -0.3825 H       
  42 H42           -2.1369    -4.6351     0.4066 H       
  43 H43           -2.1392    -5.8659     2.5354 H       
  44 H44           -0.9824    -2.3175     4.6082 H       
  45 H45           -0.9676    -1.0718     2.4882 H       
@<TRIPOS>BOND
   1    1    2 2
   2    1    6 1
   3    1    5 1
   4    2    3 1
   5    2    9 1
   6    3    4 2
   7    3   11 1
   8    4    5 1
   9    4   10 1
  10    6    7 1
  11    6   27 1
  12    6   28 1
  13    7    8 1
  14    7   13 1
  15    8    9 1
  16    8   29 1
  17    8   30 1
  18    9   31 1
  19    9   32 1
  20   10   33 1
  21   10   34 1
  22   11   12 1
  23   11   25 2
  24   12   20 ar
  25   12   24 ar
  26   13   14 1
  27   13   35 1
  28   13   36 1
  29   14   15 ar
  30   14   19 ar
  31   15   16 ar
  32   15   37 1
  33   16   17 ar
  34   16   38 1
  35   17   18 ar
  36   17   39 1
  37   18   19 ar
  38   18   40 1
  39   19   41 1
  40   20   21 ar
  41   20   42 1
  42   21   22 ar
  43   21   43 1
  44   22   23 ar
  45   22   26 1
  46   23   24 ar
  47   23   44 1
  48   24   45 1

#	End of record

