#	Name: ASD05300020
#	Creating user name:	WinNT
#	Creation time:	15. 06. 2019 20:58

#	Modifying user name:	WinNT
#	Modification time:	15. 06. 2019 20:58

#	Program:	/corina/corina34_cracker 3.40 0067  02.08.2006

@<TRIPOS>MOLECULE
ASD05300020
  33   35    0    0    0
SMALL
NO_CHARGES


@<TRIPOS>ATOM
   1 C1            -0.0184     1.5028     0.0103 C.3     
   2 C2             0.0021    -0.0041     0.0020 C.2     
   3 C3             0.0219    -0.6697     1.1371 C.2     
   4 C4             0.0287    -2.1412     1.1276 C.2     
   5 C5             0.0142    -2.7988    -0.0167 C.2     
   6 C6             0.0186    -2.0523    -1.2843 C.2     
   7 C7            -0.0062    -0.7352    -1.2761 C.2     
   8 N8             0.0799    -2.7085    -2.4656 N.am    
   9 C9            -0.9192    -2.5843    -3.3616 C.2     
  10 O10           -1.8760    -1.8830    -3.1096 O.2     
  11 N11           -0.8550    -3.2395    -4.5377 N.am    
  12 C12            1.1485    -3.4893    -2.7436 C.2     
  13 C13            1.9177    -3.1886    -3.7707 C.2     
  14 C14            3.1074    -4.0037    -4.0668 C.2     
  15 C15            3.4050    -5.0315    -3.3005 C.2     
  16 C16            2.5405    -5.3730    -2.1595 C.2     
  17 C17            1.4638    -4.6540    -1.9035 C.2     
  18 C18            0.5764    -5.0574    -0.8092 C.2     
  19 C19           -0.0425    -4.2624    -0.0014 C.2     
  20 H20            1.0042     1.8801     0.0026 H       
  21 H21           -0.5455     1.8639    -0.8728 H       
  22 H22           -0.5286     1.8543     0.9071 H       
  23 H23            0.0336    -0.1358     2.0759 H       
  24 H24            0.0459    -2.6852     2.0605 H       
  25 H25           -0.0227    -0.1905    -2.2085 H       
  26 H26           -0.0897    -3.8004    -4.7392 H       
  27 H27           -1.5740    -3.1502    -5.1825 H       
  28 H28            1.6747    -2.3426    -4.3965 H       
  29 H29            3.7345    -3.7590    -4.9113 H       
  30 H30            4.2833    -5.6243    -3.5092 H       
  31 H31            2.7877    -6.2150    -1.5299 H       
  32 H32            0.4262    -6.1171    -0.6650 H       
  33 H33           -0.6601    -4.7198     0.7573 H       
@<TRIPOS>BOND
   1    1    2 1
   2    1   20 1
   3    1   21 1
   4    1   22 1
   5    2    3 2
   6    2    7 1
   7    3    4 1
   8    3   23 1
   9    4    5 2
  10    4   24 1
  11    5    6 1
  12    5   19 1
  13    6    7 2
  14    6    8 1
  15    7   25 1
  16    8    9 am
  17    8   12 1
  18    9   10 2
  19    9   11 am
  20   11   26 1
  21   11   27 1
  22   12   13 2
  23   12   17 1
  24   13   14 1
  25   13   28 1
  26   14   15 2
  27   14   29 1
  28   15   16 1
  29   15   30 1
  30   16   17 2
  31   16   31 1
  32   17   18 1
  33   18   19 2
  34   18   32 1
  35   19   33 1

#	End of record

