#	Name: ASD01815665
#	Creating user name:	WinNT
#	Creation time:	15. 06. 2019 19:33

#	Modifying user name:	WinNT
#	Modification time:	15. 06. 2019 19:33

#	Program:	/corina/corina34_cracker 3.40 0067  02.08.2006

@<TRIPOS>MOLECULE
ASD01815665
  58   60    0    0    0
SMALL
NO_CHARGES


@<TRIPOS>ATOM
   1 C1            -0.0169     1.3915     0.0097 C.ar    
   2 C2             0.0021    -0.0041     0.0020 C.ar    
   3 C3             1.2514     2.1513     0.0017 C.2     
   4 O4             2.3137     1.5606    -0.0117 O.2     
   5 N5             1.2298     3.4989     0.0091 N.am    
   6 C6             2.4865     4.2517     0.0012 C.3     
   7 C7             2.2588     5.6326     0.6204 C.3     
   8 N8             3.5133     6.3954     0.5935 N.3     
   9 C9             3.9755     6.6089    -0.7839 C.3     
  10 C10            4.2544     5.2572    -1.4451 C.3     
  11 C11            2.9734     4.4185    -1.4410 C.3     
  12 C12            3.3680     7.6729     1.3041 C.3     
  13 C13            4.7236     8.3808     1.3626 C.3     
  14 C14            4.5755     9.6959     2.1341 C.3     
  15 N15            3.5062    10.4902     1.5139 N.am    
  16 C16            2.1859     9.8733     1.3266 C.3     
  17 C17            2.3608     8.5561     0.5641 C.3     
  18 C18            3.7320    11.7606     1.1247 C.2     
  19 O19            4.8282    12.2595     1.2855 O.2     
  20 O20            2.7429    12.4768     0.5577 O.3     
  21 C21            3.0577    13.8383     0.1633 C.3     
  22 C22            1.8196    14.4886    -0.4574 C.3     
  23 C23           -1.1850    -0.7070     0.0091 C.ar    
  24 C24           -2.3924    -0.0315     0.0233 C.ar    
  25 C25           -2.4182     1.3518     0.0310 C.ar    
  26 C26           -1.2384     2.0668     0.0191 C.ar    
  27 C27           -3.6852    -0.8059     0.0300 C.3     
  28 H28            0.9439    -0.5325    -0.0098 H       
  29 H29            0.3821     3.9703     0.0197 H       
  30 H30            3.2372     3.7129     0.5793 H       
  31 H31            1.4976     6.1652     0.0504 H       
  32 H32            1.9258     5.5176     1.6519 H       
  33 H33            3.2063     7.1370    -1.3473 H       
  34 H34            4.8893     7.2030    -0.7723 H       
  35 H35            4.5825     5.4154    -2.4724 H       
  36 H36            5.0334     4.7345    -0.8901 H       
  37 H37            3.1783     3.4385    -1.8719 H       
  38 H38            2.2061     4.9226    -2.0285 H       
  39 H39            3.0117     7.4864     2.3172 H       
  40 H40            5.4464     7.7413     1.8691 H       
  41 H41            5.0688     8.5899     0.3500 H       
  42 H42            4.3181     9.4838     3.1718 H       
  43 H43            5.5129    10.2507     2.0940 H       
  44 H44            1.7337     9.6756     2.2985 H       
  45 H45            1.5467    10.5450     0.7537 H       
  46 H46            2.7283     8.7636    -0.4409 H       
  47 H47            1.4020     8.0414     0.5023 H       
  48 H48            3.3668    14.4082     1.0395 H       
  49 H49            3.8669    13.8272    -0.5669 H       
  50 H50            1.5105    13.9187    -1.3336 H       
  51 H51            1.0104    14.4998     0.2728 H       
  52 H52            2.0559    15.5107    -0.7535 H       
  53 H53           -1.1717    -1.7869     0.0032 H       
  54 H54           -3.3640     1.8730     0.0421 H       
  55 H55           -1.2598     3.1466     0.0255 H       
  56 H56           -3.9880    -0.9985     1.0592 H       
  57 H57           -4.4586    -0.2263    -0.4739 H       
  58 H58           -3.5440    -1.7532    -0.4905 H       
@<TRIPOS>BOND
   1    1    2 ar
   2    1    3 1
   3    1   26 ar
   4    2   23 ar
   5    2   28 1
   6    3    4 2
   7    3    5 am
   8    5    6 1
   9    5   29 1
  10    6    7 1
  11    6   11 1
  12    6   30 1
  13    7    8 1
  14    7   31 1
  15    7   32 1
  16    8    9 1
  17    8   12 1
  18    9   10 1
  19    9   33 1
  20    9   34 1
  21   10   11 1
  22   10   35 1
  23   10   36 1
  24   11   37 1
  25   11   38 1
  26   12   13 1
  27   12   17 1
  28   12   39 1
  29   13   14 1
  30   13   40 1
  31   13   41 1
  32   14   15 1
  33   14   42 1
  34   14   43 1
  35   15   16 1
  36   15   18 am
  37   16   17 1
  38   16   44 1
  39   16   45 1
  40   17   46 1
  41   17   47 1
  42   18   19 2
  43   18   20 1
  44   20   21 1
  45   21   22 1
  46   21   48 1
  47   21   49 1
  48   22   50 1
  49   22   51 1
  50   22   52 1
  51   23   24 ar
  52   23   53 1
  53   24   25 ar
  54   24   27 1
  55   25   26 ar
  56   25   54 1
  57   26   55 1
  58   27   56 1
  59   27   57 1
  60   27   58 1

#	End of record

