#	Name: ASD01910593
#	Creating user name:	WinNT
#	Creation time:	15. 06. 2019 19:56

#	Modifying user name:	WinNT
#	Modification time:	15. 06. 2019 19:56

#	Program:	/corina/corina34_cracker 3.40 0067  02.08.2006

@<TRIPOS>MOLECULE
ASD01910593
  44   47    0    0    0
SMALL
NO_CHARGES


@<TRIPOS>ATOM
   1 C1            -0.6538     2.3600     0.2032 C.ar    
   2 C2            -0.7871     0.9821     0.2745 C.ar    
   3 C3             0.3377     0.1732     0.3215 C.ar    
   4 C4             1.5961     0.7361     0.2970 C.ar    
   5 C5             1.7362     2.1234     0.2247 C.ar    
   6 C6             0.5998     2.9334     0.1781 C.ar    
   7 C7             3.0821     2.7322     0.1981 C.2     
   8 N8             3.3641     4.0216     0.1315 N.2     
   9 C9             4.7040     4.0972     0.1329 C.2     
  10 N10            5.1669     2.8837     0.1985 N.2     
  11 O11            4.2563     2.0838     0.2428 O.3     
  12 C12            5.5240     5.3600     0.0694 C.3     
  13 C13            6.4021     5.4622     1.3187 C.3     
  14 C14            7.2110     6.7605     1.2709 C.3     
  15 C15            8.1221     6.7448     0.0395 C.3     
  16 N16            7.3001     6.5016    -1.1539 N.am    
  17 C17            6.4160     5.3284    -1.1756 C.3     
  18 C18            7.3561     7.3389    -2.2085 C.2     
  19 C19            6.6244     7.0133    -3.4498 C.ar    
  20 O20            8.0087     8.3622    -2.1382 O.2     
  21 C21            5.9345     8.0126    -4.1390 C.ar    
  22 C22            5.2529     7.7025    -5.2988 C.ar    
  23 C23            5.2535     6.3997    -5.7789 C.ar    
  24 C24            5.9374     5.4053    -5.0972 C.ar    
  25 C25            6.6253     5.7060    -3.9411 C.ar    
  26 F26            4.5849     6.1002    -6.9140 F       
  27 F27           -2.0179     0.4254     0.2989 F       
  28 F28            4.5843     8.6676    -5.9672 F       
  29 H29           -1.5334     2.9853     0.1626 H       
  30 H30            0.2282    -0.8997     0.3778 H       
  31 H31            2.4718     0.1051     0.3340 H       
  32 H32            0.7026     4.0070     0.1217 H       
  33 H33            4.8599     6.2229     0.0200 H       
  34 H34            5.7709     5.4601     2.2074 H       
  35 H35            7.0826     4.6115     1.3548 H       
  36 H36            6.5314     7.6105     1.2098 H       
  37 H37            7.8186     6.8439     2.1720 H       
  38 H38            8.6266     7.7064    -0.0541 H       
  39 H39            8.8613     5.9504     0.1420 H       
  40 H40            7.0161     4.4185    -1.1722 H       
  41 H41            5.7948     5.3555    -2.0709 H       
  42 H42            5.9338     9.0259    -3.7653 H       
  43 H43            5.9347     4.3935    -5.4749 H       
  44 H44            7.1576     4.9298    -3.4114 H       
@<TRIPOS>BOND
   1    1    2 ar
   2    1    6 ar
   3    1   29 1
   4    2    3 ar
   5    2   27 1
   6    3    4 ar
   7    3   30 1
   8    4    5 ar
   9    4   31 1
  10    5    6 ar
  11    5    7 1
  12    6   32 1
  13    7    8 2
  14    7   11 1
  15    8    9 1
  16    9   10 2
  17    9   12 1
  18   10   11 1
  19   12   13 1
  20   12   17 1
  21   12   33 1
  22   13   14 1
  23   13   34 1
  24   13   35 1
  25   14   15 1
  26   14   36 1
  27   14   37 1
  28   15   16 1
  29   15   38 1
  30   15   39 1
  31   16   17 1
  32   16   18 am
  33   17   40 1
  34   17   41 1
  35   18   19 1
  36   18   20 2
  37   19   21 ar
  38   19   25 ar
  39   21   22 ar
  40   21   42 1
  41   22   23 ar
  42   22   28 1
  43   23   24 ar
  44   23   26 1
  45   24   25 ar
  46   24   43 1
  47   25   44 1

#	End of record

