#	Name: ASD01880066
#	Creating user name:	WinNT
#	Creation time:	15. 06. 2019 19:39

#	Modifying user name:	WinNT
#	Modification time:	15. 06. 2019 19:39

#	Program:	/corina/corina34_cracker 3.40 0067  02.08.2006

@<TRIPOS>MOLECULE
ASD01880066
  48   50    0    0    0
SMALL
NO_CHARGES


@<TRIPOS>ATOM
   1 C1            -0.2173     1.4795     0.0477 C.ar    
   2 C2            -0.2100     0.1006     0.1363 C.ar    
   3 N3             0.9181    -0.5578     0.3184 N.ar    
   4 C4             2.0755     0.0653     0.4223 C.ar    
   5 C5             2.1462     1.4435     0.3429 C.ar    
   6 C6             0.9809     2.1697     0.1523 C.ar    
   7 C7             3.4732     2.1476     0.4631 C.3     
   8 N8             4.0735     2.2883    -0.8658 N.am    
   9 C9             3.7249     3.3693    -1.6787 C.ar    
  10 S10            5.1653     1.1656    -1.4043 S.o2    
  11 C11            4.1530    -0.0841    -2.2433 C.3     
  12 C12            5.0258    -1.2868    -2.6076 C.3     
  13 O13            5.9624     1.8742    -2.3433 O.2     
  14 O14            5.7335     0.6316    -0.2163 O.2     
  15 C15            3.2579     4.5466    -1.1088 C.ar    
  16 C16            2.9146     5.6139    -1.9155 C.ar    
  17 C17            3.0350     5.5111    -3.2891 C.ar    
  18 C18            3.4997     4.3401    -3.8599 C.ar    
  19 C19            3.8501     3.2713    -3.0589 C.ar    
  20 C20            2.4078     6.8917    -1.2980 C.3     
  21 C21            3.4145     7.9909    -1.5202 C.ar    
  22 C22            4.0971     8.5305    -0.4461 C.ar    
  23 C23            5.0206     9.5387    -0.6500 C.ar    
  24 C24            5.2617    10.0071    -1.9280 C.ar    
  25 C25            4.5798     9.4668    -3.0022 C.ar    
  26 C26            3.6595     8.4556    -2.7989 C.ar    
  27 F27            1.1916     7.2462    -1.8917 F       
  28 H28           -1.1439     2.0128    -0.1056 H       
  29 H29           -1.1390    -0.4443     0.0558 H       
  30 H30            2.9787    -0.5078     0.5714 H       
  31 H31            1.0057     3.2474     0.0864 H       
  32 H32            3.3224     3.1348     0.9000 H       
  33 H33            4.1371     1.5651     1.1019 H       
  34 H34            3.3496    -0.4057    -1.5806 H       
  35 H35            3.7263     0.3433    -3.1507 H       
  36 H36            5.4525    -1.7142    -1.7003 H       
  37 H37            4.4175    -2.0377    -3.1118 H       
  38 H38            5.8292    -0.9652    -3.2704 H       
  39 H39            3.1630     4.6274    -0.0360 H       
  40 H40            2.7651     6.3468    -3.9176 H       
  41 H41            3.5922     4.2630    -4.9332 H       
  42 H42            4.2132     2.3574    -3.5053 H       
  43 H43            2.2606     6.7448    -0.2280 H       
  44 H44            3.9087     8.1646     0.5524 H       
  45 H45            5.5534     9.9608     0.1893 H       
  46 H46            5.9827    10.7953    -2.0872 H       
  47 H47            4.7680     9.8330    -4.0007 H       
  48 H48            3.1267     8.0335    -3.6382 H       
@<TRIPOS>BOND
   1    1    2 ar
   2    1    6 ar
   3    1   28 1
   4    2    3 ar
   5    2   29 1
   6    3    4 ar
   7    4    5 ar
   8    4   30 1
   9    5    6 ar
  10    5    7 1
  11    6   31 1
  12    7    8 1
  13    7   32 1
  14    7   33 1
  15    8    9 1
  16    8   10 am
  17    9   15 ar
  18    9   19 ar
  19   10   11 1
  20   10   13 2
  21   10   14 2
  22   11   12 1
  23   11   34 1
  24   11   35 1
  25   12   36 1
  26   12   37 1
  27   12   38 1
  28   15   16 ar
  29   15   39 1
  30   16   17 ar
  31   16   20 1
  32   17   18 ar
  33   17   40 1
  34   18   19 ar
  35   18   41 1
  36   19   42 1
  37   20   21 1
  38   20   27 1
  39   20   43 1
  40   21   22 ar
  41   21   26 ar
  42   22   23 ar
  43   22   44 1
  44   23   24 ar
  45   23   45 1
  46   24   25 ar
  47   24   46 1
  48   25   26 ar
  49   25   47 1
  50   26   48 1

#	End of record

