#	Name: ASD02500184
#	Creating user name:	WinNT
#	Creation time:	15. 06. 2019 20:22

#	Modifying user name:	WinNT
#	Modification time:	15. 06. 2019 20:22

#	Program:	/corina/corina34_cracker 3.40 0067  02.08.2006

@<TRIPOS>MOLECULE
ASD02500184
  65   69    0    0    0
SMALL
NO_CHARGES


@<TRIPOS>ATOM
   1 N1            -3.4299     5.6549    -0.2305 N.ar    
   2 C2            -4.5250     6.3166    -0.5157 C.ar    
   3 C3            -5.6918     6.1595     0.2295 C.ar    
   4 C4            -5.7133     5.2972     1.2884 C.ar    
   5 C5            -4.5356     4.5880     1.5915 C.ar    
   6 C6            -4.4818     3.6850     2.6651 C.ar    
   7 C7            -3.3234     3.0184     2.9262 C.ar    
   8 C8            -2.1898     3.2209     2.1421 C.ar    
   9 C9            -2.2068     4.0888     1.0939 C.ar    
  10 C10           -3.3838     4.7957     0.7926 C.ar    
  11 S11           -0.7584     4.3264     0.1189 S.o2    
  12 O12           -0.5514     5.7302     0.0433 O.2     
  13 O13            0.2164     3.4230     0.6217 O.2     
  14 N14           -1.1141     3.8227    -1.4181 N.am    
  15 C15           -1.3344     2.4739    -1.6742 C.ar    
  16 C16           -0.9715     1.9321    -2.9044 C.ar    
  17 C17           -1.1881     0.5978    -3.1609 C.ar    
  18 C18           -1.7733    -0.2142    -2.1846 C.ar    
  19 C19           -2.1364     0.3327    -0.9506 C.ar    
  20 C20           -1.9119     1.6669    -0.6981 C.ar    
  21 C21           -2.0074    -1.6451    -2.4565 C.2     
  22 O22           -2.4334    -1.9964    -3.5399 O.2     
  23 N23           -1.7490    -2.5631    -1.5042 N.am    
  24 C24           -1.8914    -3.9977    -1.7898 C.3     
  25 C25           -0.5665    -4.6967    -1.4609 C.3     
  26 N26           -0.1368    -4.2811    -0.1183 N.am    
  27 C27            0.0056    -2.8465     0.1673 C.3     
  28 C28           -1.3140    -2.1477    -0.1632 C.3     
  29 C29            0.1215    -5.1991     0.8340 C.2     
  30 C30            0.6632    -4.7745     2.1424 C.ar    
  31 C31            0.0262    -5.1484     3.3320 C.ar    
  32 C32            0.5738    -4.7255     4.5301 C.ar    
  33 C33            1.7222    -3.9540     4.5148 C.ar    
  34 N34            2.3008    -3.6164     3.3783 N.ar    
  35 C35            1.8211    -3.9992     2.2130 C.ar    
  36 O36           -0.0908    -6.3761     0.6172 O.2     
  37 C37           -1.2240    -5.9895     3.3078 C.3     
  38 F38           -1.6562    -6.2204     4.6182 F       
  39 F39           -2.2249    -5.3171     2.5983 F       
  40 F40           -0.9517    -7.2120     2.6844 F       
  41 C41           -0.3413     2.8081    -3.9563 C.3     
  42 H42           -4.5226     7.0020    -1.3504 H       
  43 H43           -6.5782     6.7194    -0.0298 H       
  44 H44           -6.6089     5.1635     1.8771 H       
  45 H45           -5.3539     3.5201     3.2804 H       
  46 H46           -3.2829     2.3238     3.7522 H       
  47 H47           -1.2828     2.6807     2.3700 H       
  48 H48           -1.1688     4.4687    -2.1396 H       
  49 H49           -0.9068     0.1781    -4.1154 H       
  50 H50           -2.5886    -0.2920    -0.1945 H       
  51 H51           -2.1879     2.0891     0.2569 H       
  52 H52           -2.6882    -4.4158    -1.1746 H       
  53 H53           -2.1277    -4.1390    -2.8445 H       
  54 H54           -0.7080    -5.7773    -1.4815 H       
  55 H55            0.1896    -4.4103    -2.1920 H       
  56 H56            0.2418    -2.7052     1.2220 H       
  57 H57            0.8023    -2.4284    -0.4478 H       
  58 H58           -1.1690    -1.0675    -0.1440 H       
  59 H59           -2.0687    -2.4311     0.5704 H       
  60 H60            0.1095    -4.9944     5.4674 H       
  61 H61            2.1518    -3.6225     5.4485 H       
  62 H62            2.3256    -3.7066     1.3041 H       
  63 H63            0.7421     2.7968    -3.8372 H       
  64 H64           -0.6019     2.4325    -4.9458 H       
  65 H65           -0.7082     3.8286    -3.8468 H       
@<TRIPOS>BOND
   1    1    2 ar
   2    1   10 ar
   3    2    3 ar
   4    2   42 1
   5    3    4 ar
   6    3   43 1
   7    4    5 ar
   8    4   44 1
   9    5    6 ar
  10    5   10 ar
  11    6    7 ar
  12    6   45 1
  13    7    8 ar
  14    7   46 1
  15    8    9 ar
  16    8   47 1
  17    9   10 ar
  18    9   11 1
  19   11   12 2
  20   11   13 2
  21   11   14 am
  22   14   15 1
  23   14   48 1
  24   15   16 ar
  25   15   20 ar
  26   16   17 ar
  27   16   41 1
  28   17   18 ar
  29   17   49 1
  30   18   19 ar
  31   18   21 1
  32   19   20 ar
  33   19   50 1
  34   20   51 1
  35   21   22 2
  36   21   23 am
  37   23   24 1
  38   23   28 1
  39   24   25 1
  40   24   52 1
  41   24   53 1
  42   25   26 1
  43   25   54 1
  44   25   55 1
  45   26   27 1
  46   26   29 am
  47   27   28 1
  48   27   56 1
  49   27   57 1
  50   28   58 1
  51   28   59 1
  52   29   30 1
  53   29   36 2
  54   30   31 ar
  55   30   35 ar
  56   31   32 ar
  57   31   37 1
  58   32   33 ar
  59   32   60 1
  60   33   34 ar
  61   33   61 1
  62   34   35 ar
  63   35   62 1
  64   37   38 1
  65   37   39 1
  66   37   40 1
  67   41   63 1
  68   41   64 1
  69   41   65 1

#	End of record

