#	Name: ASD01912933
#	Creating user name:	WinNT
#	Creation time:	15. 06. 2019 20:00

#	Modifying user name:	WinNT
#	Modification time:	15. 06. 2019 20:00

#	Program:	/corina/corina34_cracker 3.40 0067  02.08.2006

@<TRIPOS>MOLECULE
ASD01912933
  47   50    0    0    0
SMALL
NO_CHARGES


@<TRIPOS>ATOM
   1 C1             0.7324     1.3970    -1.3805 C.ar    
   2 C2             0.7243     0.0160    -1.3070 C.ar    
   3 C3             1.3193    -0.6070    -0.2143 C.ar    
   4 N4             1.8858     0.1099     0.7438 N.ar    
   5 C5             1.9084     1.4287     0.6999 C.ar    
   6 C6             1.3375     2.1117    -0.3549 C.ar    
   7 N7             1.3184    -1.9943    -0.1277 N.3     
   8 C8             2.6854    -2.5272    -0.2009 C.3     
   9 C9             0.6353    -2.4451     1.0922 C.3     
  10 C10            0.4961    -3.9709     1.0615 C.3     
  11 N11            1.8269    -4.5571     0.8411 N.am    
  12 C12            2.6301    -4.0563    -0.2846 C.3     
  13 C13            2.2976    -5.5278     1.6489 C.2     
  14 O14            3.3542    -6.0721     1.3934 O.2     
  15 N15            1.5969    -5.8952     2.7401 N.am    
  16 C16            2.1296    -6.8155     3.6278 C.2     
  17 S17            1.3286    -7.3829     5.0863 S.3     
  18 C18            2.7054    -8.4184     5.4560 C.ar    
  19 C19            3.6626    -8.2557     4.4502 C.ar    
  20 N20            3.2794    -7.3808     3.4989 N.2     
  21 C21            2.9379    -9.2916     6.5160 C.ar    
  22 C22            4.1161   -10.0031     6.5820 C.ar    
  23 C23            5.0747    -9.8504     5.5895 C.ar    
  24 C24            4.8614    -8.9948     4.5387 C.ar    
  25 Cl25           4.4018   -11.0893     7.9058 Cl      
  26 C26            4.0470    -4.6272    -0.1991 C.3     
  27 C27            0.0795    -0.8030    -2.3954 C.3     
  28 F28           -0.5402     0.0495    -3.3154 F       
  29 F29            1.0562    -1.5628    -3.0481 F       
  30 F30           -0.8762    -1.6560    -1.8330 F       
  31 H31            0.2823     1.9080    -2.2187 H       
  32 H32            2.3793     1.9806     1.4999 H       
  33 H33            1.3611     3.1911    -0.3824 H       
  34 H34            3.1828    -2.1322    -1.0867 H       
  35 H35            3.2392    -2.2315     0.6901 H       
  36 H36            1.2178    -2.1505     1.9652 H       
  37 H37           -0.3540    -1.9906     1.1443 H       
  38 H38            0.0946    -4.3211     2.0124 H       
  39 H39           -0.1710    -4.2614     0.2499 H       
  40 H40            2.1682    -4.3550    -1.2256 H       
  41 H41            0.7196    -5.5151     2.9037 H       
  42 H42            2.1928    -9.4110     7.2886 H       
  43 H43            5.9967   -10.4101     5.6453 H       
  44 H44            5.6161    -8.8864     3.7738 H       
  45 H45            4.0186    -5.7001    -0.3894 H       
  46 H46            4.6795    -4.1429    -0.9431 H       
  47 H47            4.4525    -4.4454     0.7962 H       
@<TRIPOS>BOND
   1    1    2 ar
   2    1    6 ar
   3    1   31 1
   4    2    3 ar
   5    2   27 1
   6    3    4 ar
   7    3    7 1
   8    4    5 ar
   9    5    6 ar
  10    5   32 1
  11    6   33 1
  12    7    8 1
  13    7    9 1
  14    8   12 1
  15    8   34 1
  16    8   35 1
  17    9   10 1
  18    9   36 1
  19    9   37 1
  20   10   11 1
  21   10   38 1
  22   10   39 1
  23   11   12 1
  24   11   13 am
  25   12   26 1
  26   12   40 1
  27   13   14 2
  28   13   15 am
  29   15   16 1
  30   15   41 1
  31   16   17 1
  32   16   20 2
  33   17   18 1
  34   18   19 ar
  35   18   21 ar
  36   19   20 1
  37   19   24 ar
  38   21   22 ar
  39   21   42 1
  40   22   23 ar
  41   22   25 1
  42   23   24 ar
  43   23   43 1
  44   24   44 1
  45   26   45 1
  46   26   46 1
  47   26   47 1
  48   27   28 1
  49   27   29 1
  50   27   30 1

#	End of record

