#	Name: ASD05730026
#	Creating user name:	WinNT
#	Creation time:	15. 06. 2019 21:02

#	Modifying user name:	WinNT
#	Modification time:	15. 06. 2019 21:02

#	Program:	/corina/corina34_cracker 3.40 0067  02.08.2006

@<TRIPOS>MOLECULE
ASD05730026
  75   79    0    0    0
SMALL
NO_CHARGES


@<TRIPOS>ATOM
   1 C1            -0.1072     1.1614    -0.0381 C.ar    
   2 C2            -0.0157     0.1529    -0.9825 C.ar    
   3 C3            -1.1072    -0.1876    -1.7560 C.ar    
   4 C4            -2.3142     0.4826    -1.5927 C.ar    
   5 C5            -2.4030     1.5027    -0.6352 C.ar    
   6 C6            -1.2990     1.8342     0.1429 C.ar    
   7 N7            -3.5430     0.3435    -2.2263 N.am    
   8 C8            -4.4448     1.2149    -1.7433 C.2     
   9 C9            -3.7901     2.0146    -0.6990 C.2     
  10 C10           -4.3479     3.0251     0.0585 C.2     
  11 C11           -5.7340     3.2832    -0.0198 C.2     
  12 N12           -6.7240     2.3425    -0.2156 N.pl3   
  13 C13           -7.9194     2.9544    -0.2339 C.2     
  14 C14           -7.7258     4.3122    -0.0489 C.2     
  15 C15           -6.3365     4.5204     0.0923 C.2     
  16 C16           -5.6438     5.8403     0.3139 C.3     
  17 C17           -8.7736     5.3462    -0.0032 C.2     
  18 O18           -8.4709     6.5109     0.1659 O.2     
  19 O19          -10.0680     5.0007    -0.1487 O.3     
  20 O20           -5.6022     1.3228    -2.1074 O.2     
  21 N21            2.1287     2.7582     0.1221 N.am    
  22 C22            1.5163     4.0713    -0.0949 C.3     
  23 C23            2.5928     5.1243    -0.1524 C.ar    
  24 C24            4.8381     5.7663    -0.6809 C.ar    
  25 C25            3.8502     4.8013    -0.6273 C.ar    
  26 C26          -11.0465     6.0720    -0.0928 C.3     
  27 C27          -12.4499     5.4909    -0.2763 C.3     
  28 O28            0.7929     4.0617    -1.3272 O.3     
  29 C29            2.3204     6.4139     0.2645 C.ar    
  30 C30            3.3066     7.3806     0.2118 C.ar    
  31 C31            4.5680     7.0570    -0.2587 C.ar    
  32 F32            5.5329     8.0011    -0.3106 F       
  33 C33          -13.4810     6.6197    -0.2174 C.3     
  34 C34          -13.2750     7.5624    -1.4053 C.3     
  35 N35          -14.2778     8.6343    -1.3608 N.3     
  36 C36          -15.6387     8.0931    -1.4678 C.3     
  37 C37          -15.9152     7.1663    -0.2819 C.3     
  38 C38          -14.8916     6.0275    -0.2807 C.3     
  39 C39          -14.0254     9.6349    -2.4063 C.3     
  40 S40            1.2975     1.5817     0.9390 S.o2    
  41 O41            0.7964     2.1915     2.1207 O.2     
  42 O42            2.1353     0.4340     0.9519 O.2     
  43 H43            0.9187    -0.3721    -1.1155 H       
  44 H44           -1.0232    -0.9758    -2.4896 H       
  45 H45           -1.3713     2.6207     0.8796 H       
  46 H46           -3.7264    -0.3004    -2.9282 H       
  47 H47           -3.7242     3.6183     0.7108 H       
  48 H48           -6.5795     1.3894    -0.3235 H       
  49 H49           -8.8738     2.4676    -0.3702 H       
  50 H50           -5.5615     6.0323     1.3837 H       
  51 H51           -4.6474     5.8062    -0.1267 H       
  52 H52           -6.2213     6.6370    -0.1549 H       
  53 H53            3.0210     2.5779    -0.2128 H       
  54 H54            0.8337     4.2938     0.7253 H       
  55 H55            5.8204     5.5137    -1.0519 H       
  56 H56            4.0608     3.7944    -0.9562 H       
  57 H57          -10.9836     6.5714     0.8740 H       
  58 H58          -10.8442     6.7907    -0.8869 H       
  59 H59          -12.5128     4.9915    -1.2431 H       
  60 H60          -12.6523     4.7722     0.5178 H       
  61 H61            1.3387     3.8699    -2.1021 H       
  62 H62            1.3363     6.6662     0.6312 H       
  63 H63            3.0935     8.3881     0.5372 H       
  64 H64          -13.3602     7.1748     0.7129 H       
  65 H65          -12.2766     7.9968    -1.3553 H       
  66 H66          -13.3817     7.0036    -2.3351 H       
  67 H67          -16.3569     8.9129    -1.4633 H       
  68 H68          -15.7342     7.5318    -2.3974 H       
  69 H69          -15.8334     7.7301     0.6474 H       
  70 H70          -16.9198     6.7525    -0.3699 H       
  71 H71          -14.9994     5.4399    -1.1925 H       
  72 H72          -15.0579     5.3891     0.5870 H       
  73 H73          -14.0682     9.1567    -3.3848 H       
  74 H74          -14.7824    10.4172    -2.3508 H       
  75 H75          -13.0384    10.0733    -2.2589 H       
@<TRIPOS>BOND
   1    1    2 ar
   2    1   40 1
   3    1    6 ar
   4    2    3 ar
   5    2   43 1
   6    3    4 ar
   7    3   44 1
   8    4    5 ar
   9    4    7 1
  10    5    6 ar
  11    5    9 1
  12    6   45 1
  13    7    8 am
  14    7   46 1
  15    8    9 1
  16    8   20 2
  17    9   10 2
  18   10   11 1
  19   10   47 1
  20   11   12 1
  21   11   15 2
  22   12   13 1
  23   12   48 1
  24   13   14 2
  25   13   49 1
  26   14   15 1
  27   14   17 1
  28   15   16 1
  29   16   50 1
  30   16   51 1
  31   16   52 1
  32   17   18 2
  33   17   19 1
  34   19   26 1
  35   21   22 1
  36   21   40 am
  37   21   53 1
  38   22   23 1
  39   22   28 1
  40   22   54 1
  41   23   29 ar
  42   23   25 ar
  43   24   25 ar
  44   24   31 ar
  45   24   55 1
  46   25   56 1
  47   26   27 1
  48   26   57 1
  49   26   58 1
  50   27   33 1
  51   27   59 1
  52   27   60 1
  53   28   61 1
  54   29   30 ar
  55   29   62 1
  56   30   31 ar
  57   30   63 1
  58   31   32 1
  59   33   34 1
  60   33   38 1
  61   33   64 1
  62   34   35 1
  63   34   65 1
  64   34   66 1
  65   35   36 1
  66   35   39 1
  67   36   37 1
  68   36   67 1
  69   36   68 1
  70   37   38 1
  71   37   69 1
  72   37   70 1
  73   38   71 1
  74   38   72 1
  75   39   73 1
  76   39   74 1
  77   39   75 1
  78   40   41 2
  79   40   42 2

#	End of record

