#	Name: ASD00740006
#	Creating user name:	WinNT
#	Creation time:	15. 06. 2019 18:37

#	Modifying user name:	WinNT
#	Modification time:	15. 06. 2019 18:37

#	Program:	/corina/corina34_cracker 3.40 0067  02.08.2006

@<TRIPOS>MOLECULE
ASD00740006
  52   54    0    0    0
SMALL
NO_CHARGES


@<TRIPOS>ATOM
   1 C1            -0.0901     1.3499     0.6471 C.ar    
   2 C2            -0.0521    -0.0392     0.4628 C.ar    
   3 C3            -1.1845    -0.7312     0.0940 C.ar    
   4 C4            -2.3852    -0.0371    -0.0978 C.ar    
   5 C5            -2.4160     1.3670     0.0908 C.ar    
   6 C6            -1.2521     2.0460     0.4703 C.ar    
   7 N7            -3.5161    -0.6643    -0.4577 N.ar    
   8 C8            -4.6261     0.0130    -0.6303 C.ar    
   9 N9            -4.7024     1.3241    -0.4656 N.ar    
  10 C10           -3.6440     2.0409    -0.1107 C.ar    
  11 N11           -3.7382     3.4079     0.0579 N.pl3   
  12 C12           -4.9823     4.0392    -0.0318 C.ar    
  13 C13           -6.1277     3.3760     0.3809 C.ar    
  14 C14           -7.3661     4.0101     0.2892 C.ar    
  15 C15           -7.4447     5.3081    -0.2173 C.ar    
  16 C16           -6.2986     5.9601    -0.6262 C.ar    
  17 C17           -5.0704     5.3343    -0.5297 C.ar    
  18 C18           -8.5537     3.3314     0.7131 C.1     
  19 C19           -9.5273     2.7750     1.0606 C.1     
  20 O20            1.0410     2.0110     1.0112 O.3     
  21 C21            0.9385     3.4259     1.1836 C.3     
  22 C22            2.3013     3.9902     1.5900 C.3     
  23 O23            3.2312     3.8061     0.5208 O.3     
  24 C24            4.5424     4.3014     0.7991 C.3     
  25 O25            1.1143    -0.7102     0.6495 O.3     
  26 C26            1.0889    -2.1244     0.4465 C.3     
  27 C27            2.4830    -2.7013     0.7010 C.3     
  28 O28            2.8285    -2.5230     2.0760 O.3     
  29 C29            4.1191    -3.0301     2.4215 C.3     
  30 H30           -1.1464    -1.8013    -0.0466 H       
  31 H31           -1.2709     3.1160     0.6152 H       
  32 H32           -5.5177    -0.5231    -0.9203 H       
  33 H33           -2.9411     3.9303     0.2387 H       
  34 H34           -6.0609     2.3714     0.7718 H       
  35 H35           -8.4022     5.8024    -0.2898 H       
  36 H36           -6.3617     6.9643    -1.0186 H       
  37 H37           -4.1771     5.8493    -0.8511 H       
  38 H38          -10.3981     2.2773     1.3714 H       
  39 H39            0.6202     3.8838     0.2471 H       
  40 H40            0.2077     3.6450     1.9620 H       
  41 H41            2.2038     5.0538     1.8077 H       
  42 H42            2.6603     3.4692     2.4776 H       
  43 H43            4.9479     3.7868     1.6702 H       
  44 H44            5.1880     4.1238    -0.0610 H       
  45 H45            4.4915     5.3714     1.0003 H       
  46 H46            0.3767    -2.5777     1.1359 H       
  47 H47            0.7886    -2.3389    -0.5792 H       
  48 H48            2.4856    -3.7645     0.4606 H       
  49 H49            3.2098    -2.1852     0.0738 H       
  50 H50            4.1557    -4.1001     2.2169 H       
  51 H51            4.8799    -2.5208     1.8300 H       
  52 H52            4.3060    -2.8563     3.4812 H       
@<TRIPOS>BOND
   1    1    2 ar
   2    1   20 1
   3    1    6 ar
   4    2    3 ar
   5    2   25 1
   6    3    4 ar
   7    3   30 1
   8    4    5 ar
   9    4    7 ar
  10    5    6 ar
  11    5   10 ar
  12    6   31 1
  13    7    8 ar
  14    8    9 ar
  15    8   32 1
  16    9   10 ar
  17   10   11 1
  18   11   12 1
  19   11   33 1
  20   12   13 ar
  21   12   17 ar
  22   13   14 ar
  23   13   34 1
  24   14   15 ar
  25   14   18 1
  26   15   16 ar
  27   15   35 1
  28   16   17 ar
  29   16   36 1
  30   17   37 1
  31   18   19 3
  32   19   38 1
  33   20   21 1
  34   21   22 1
  35   21   39 1
  36   21   40 1
  37   22   23 1
  38   22   41 1
  39   22   42 1
  40   23   24 1
  41   24   43 1
  42   24   44 1
  43   24   45 1
  44   25   26 1
  45   26   27 1
  46   26   46 1
  47   26   47 1
  48   27   28 1
  49   27   48 1
  50   27   49 1
  51   28   29 1
  52   29   50 1
  53   29   51 1
  54   29   52 1

#	End of record

