#	Name: ASD05143267
#	Creating user name:	WinNT
#	Creation time:	15. 06. 2019 20:57

#	Modifying user name:	WinNT
#	Modification time:	15. 06. 2019 20:57

#	Program:	/corina/corina34_cracker 3.40 0067  02.08.2006

@<TRIPOS>MOLECULE
ASD05143267
  44   46    0    0    0
SMALL
NO_CHARGES


@<TRIPOS>ATOM
   1 C1             0.3391     1.2341     0.2628 C.2     
   2 N2             0.3402    -0.0323    -0.1034 N.2     
   3 S3            -1.2948    -0.4860    -0.1955 S.3     
   4 C4            -1.8980     1.0599     0.2658 C.2     
   5 N5            -0.8325     1.8051     0.4616 N.2     
   6 N6            -3.2213     1.4359     0.4056 N.pl3   
   7 C7            -3.5389     2.7078     0.8906 C.ar    
   8 C8            -4.8580     3.0325     1.1817 C.ar    
   9 C9            -5.1683     4.2897     1.6610 C.ar    
  10 C10           -4.1676     5.2253     1.8514 C.ar    
  11 C11           -2.8539     4.9056     1.5622 C.ar    
  12 C12           -2.5358     3.6480     1.0879 C.ar    
  13 C13            1.4342    -0.8202    -0.3579 C.ar    
  14 C14            1.6226    -2.0078     0.3509 C.ar    
  15 C15            2.3602    -0.4402    -1.3309 C.ar    
  16 C16            3.4578    -1.2368    -1.5827 C.ar    
  17 C17            3.6419    -2.4114    -0.8728 C.ar    
  18 C18            2.7242    -2.7960     0.0902 C.ar    
  19 C19            1.6034     1.9836     0.4492 C.ar    
  20 C20            1.6558     3.3488     0.1693 C.ar    
  21 C21            2.7444     1.3280     0.9109 C.ar    
  22 C22            3.9189     2.0315     1.0831 C.ar    
  23 C23            3.9660     3.3846     0.7986 C.ar    
  24 C24            2.8361     4.0416     0.3453 C.ar    
  25 Cl25           5.0255    -3.4089    -1.1958 Cl      
  26 C26           -5.9491     2.0138     0.9741 C.3     
  27 H27           -3.9291     0.8170     0.1672 H       
  28 H28           -6.1936     4.5428     1.8872 H       
  29 H29           -4.4130     6.2079     2.2264 H       
  30 H30           -2.0750     5.6388     1.7113 H       
  31 H31           -1.5094     3.3988     0.8625 H       
  32 H32            0.9075    -2.3088     1.1022 H       
  33 H33            2.2173     0.4753    -1.8856 H       
  34 H34            4.1750    -0.9439    -2.3352 H       
  35 H35            2.8732    -3.7130     0.6409 H       
  36 H36            0.7744     3.8627    -0.1850 H       
  37 H37            2.7087     0.2718     1.1337 H       
  38 H38            4.8030     1.5249     1.4409 H       
  39 H39            4.8874     3.9311     0.9352 H       
  40 H40            2.8790     5.0979     0.1246 H       
  41 H41           -6.0822     1.4329     1.8868 H       
  42 H42           -6.8806     2.5240     0.7291 H       
  43 H43           -5.6736     1.3478     0.1564 H       
  44 Br44          10.0255    11.2079     7.2264 Br      
@<TRIPOS>BOND
   1    1    2 2
   2    1   19 1
   3    1    5 1
   4    2    3 1
   5    2   13 1
   6    3    4 1
   7    4    5 2
   8    4    6 1
   9    6    7 1
  10    6   27 1
  11    7    8 ar
  12    7   12 ar
  13    8    9 ar
  14    8   26 1
  15    9   10 ar
  16    9   28 1
  17   10   11 ar
  18   10   29 1
  19   11   12 ar
  20   11   30 1
  21   12   31 1
  22   13   14 ar
  23   13   15 ar
  24   14   18 ar
  25   14   32 1
  26   15   16 ar
  27   15   33 1
  28   16   17 ar
  29   16   34 1
  30   17   18 ar
  31   17   25 1
  32   18   35 1
  33   19   20 ar
  34   19   21 ar
  35   20   24 ar
  36   20   36 1
  37   21   22 ar
  38   21   37 1
  39   22   23 ar
  40   22   38 1
  41   23   24 ar
  42   23   39 1
  43   24   40 1
  44   26   41 1
  45   26   42 1
  46   26   43 1

#	End of record

