#	Name: ASD01913798
#	Creating user name:	WinNT
#	Creation time:	15. 06. 2019 20:02

#	Modifying user name:	WinNT
#	Modification time:	15. 06. 2019 20:02

#	Program:	/corina/corina34_cracker 3.40 0067  02.08.2006

@<TRIPOS>MOLECULE
ASD01913798
  38   41    0    0    0
SMALL
NO_CHARGES


@<TRIPOS>ATOM
   1 N1            -0.0035     1.2954     0.1970 N.ar    
   2 C2             0.0002    -0.0012    -0.0455 C.ar    
   3 C3             1.1816    -0.6767    -0.3083 C.ar    
   4 C4             2.3759     0.0250    -0.3155 C.ar    
   5 C5             2.3383     1.4012    -0.0542 C.ar    
   6 C6             1.1050     2.0059     0.2014 C.ar    
   7 C7             3.5436     2.1745    -0.0488 C.1     
   8 C8             4.5316     2.8085    -0.0443 C.1     
   9 C9             5.7369     3.5818    -0.0389 C.ar    
  10 C10            5.6978     4.9596     0.2229 C.ar    
  11 C11            8.0743     4.9869    -0.0461 C.ar    
  12 N12            8.0794     3.6838    -0.2836 N.ar    
  13 C13            6.9697     2.9749    -0.2884 C.ar    
  14 C14            6.8861     5.6620     0.2170 C.ar    
  15 N15            9.2764     5.6904    -0.0521 N.am    
  16 C16            9.3971     7.0245    -0.0448 C.2     
  17 O17           10.6636     7.4537    -0.0526 O.3     
  18 C18           11.5665     6.3111    -0.0666 C.3     
  19 C19           10.6178     5.0885    -0.0612 C.3     
  20 O20            8.4426     7.7762    -0.0328 O.2     
  21 C21           12.3427     6.2593     1.2645 C.3     
  22 C22           11.4315     5.4348     2.2068 C.3     
  23 C23           10.8631     4.3522     1.2710 C.3     
  24 H24           12.2232     6.3206    -0.9366 H       
  25 H25           10.7673     4.4487    -0.9309 H       
  26 F26            1.1685    -2.0051    -0.5543 F       
  27 H27           -0.9327    -0.5454    -0.0388 H       
  28 H28            3.3115    -0.4755    -0.5168 H       
  29 H29            1.0605     3.0657     0.4044 H       
  30 H30            4.7611     5.4584     0.4237 H       
  31 H31            7.0134     1.9142    -0.4868 H       
  32 H32            6.8936     6.7238     0.4140 H       
  33 H33           13.3014     5.7590     1.1275 H       
  34 H34           12.4894     7.2645     1.6596 H       
  35 H35           12.0143     4.9817     3.0088 H       
  36 H36           10.6322     6.0555     2.6118 H       
  37 H37            9.9251     3.9615     1.6656 H       
  38 H38           11.5856     3.5473     1.1363 H       
@<TRIPOS>BOND
   1    1    2 ar
   2    1    6 ar
   3    2    3 ar
   4    2   27 1
   5    3    4 ar
   6    3   26 1
   7    4    5 ar
   8    4   28 1
   9    5    6 ar
  10    5    7 1
  11    6   29 1
  12    7    8 3
  13    8    9 1
  14    9   10 ar
  15    9   13 ar
  16   10   14 ar
  17   10   30 1
  18   11   12 ar
  19   11   15 1
  20   11   14 ar
  21   12   13 ar
  22   13   31 1
  23   14   32 1
  24   15   16 am
  25   15   19 1
  26   16   17 1
  27   16   20 2
  28   17   18 1
  29   18   19 1
  30   18   21 1
  31   18   24 1
  32   19   25 1
  33   19   23 1
  34   21   22 1
  35   21   33 1
  36   21   34 1
  37   22   23 1
  38   22   35 1
  39   22   36 1
  40   23   37 1
  41   23   38 1

#	End of record

