#	Name: ASD01911927
#	Creating user name:	WinNT
#	Creation time:	15. 06. 2019 19:58

#	Modifying user name:	WinNT
#	Modification time:	15. 06. 2019 19:58

#	Program:	/corina/corina34_cracker 3.40 0067  02.08.2006

@<TRIPOS>MOLECULE
ASD01911927
  34   36    0    0    0
SMALL
NO_CHARGES


@<TRIPOS>ATOM
   1 C1             0.4119     0.1146    -1.8764 C.ar    
   2 C2            -0.0795     0.0132    -0.5788 C.ar    
   3 C3             0.6068     0.6678     0.4390 C.ar    
   4 N4             1.6944     1.3584     0.1388 N.ar    
   5 C5             2.1285     1.4306    -1.1034 C.ar    
   6 N6             1.5064     0.8247    -2.0948 N.ar    
   7 O7            -1.2012    -0.7063    -0.3124 O.3     
   8 C8            -1.0957    -2.0609    -0.2713 C.ar    
   9 C9            -2.2179    -2.8379    -0.0123 C.ar    
  10 C10           -2.1105    -4.2183     0.0302 C.ar    
  11 C11           -0.8857    -4.8253    -0.1858 C.ar    
  12 C12            0.2375    -4.0512    -0.4449 C.ar    
  13 C13            0.1303    -2.6679    -0.4934 C.ar    
  14 N14            1.4757    -4.6653    -0.6627 N.am    
  15 C15            1.5337    -5.8720    -1.2602 C.2     
  16 C16            2.8334    -6.5689    -1.3973 C.ar    
  17 O17            0.5194    -6.3883    -1.6866 O.2     
  18 C18            2.8863    -7.8151    -2.0155 C.ar    
  19 F19           -3.2024    -4.9727     0.2831 F       
  20 C20            4.1099    -8.4566    -2.1377 C.ar    
  21 C21            5.2382    -7.8293    -1.6373 C.ar    
  22 C22            5.1132    -6.5851    -1.0318 C.ar    
  23 N23            3.9391    -5.9969    -0.9341 N.ar    
  24 F24           -3.4143    -2.2469     0.1988 F       
  25 F25            6.2108    -5.9687    -0.5414 F       
  26 H26           -0.0904    -0.3829    -2.6929 H       
  27 H27            0.2566     0.6133     1.4591 H       
  28 H28            3.0195     2.0030    -1.3152 H       
  29 H29           -0.8034    -5.9017    -0.1524 H       
  30 H30            1.0033    -2.0648    -0.6952 H       
  31 H31            2.2925    -4.2226    -0.3836 H       
  32 H32            1.9863    -8.2764    -2.3946 H       
  33 H33            4.1809    -9.4241    -2.6124 H       
  34 H34            6.2058    -8.3026    -1.7164 H       
@<TRIPOS>BOND
   1    1    2 ar
   2    1    6 ar
   3    1   26 1
   4    2    3 ar
   5    2    7 1
   6    3    4 ar
   7    3   27 1
   8    4    5 ar
   9    5    6 ar
  10    5   28 1
  11    7    8 1
  12    8    9 ar
  13    8   13 ar
  14    9   10 ar
  15    9   24 1
  16   10   11 ar
  17   10   19 1
  18   11   12 ar
  19   11   29 1
  20   12   13 ar
  21   12   14 1
  22   13   30 1
  23   14   15 am
  24   14   31 1
  25   15   16 1
  26   15   17 2
  27   16   18 ar
  28   16   23 ar
  29   18   20 ar
  30   18   32 1
  31   20   21 ar
  32   20   33 1
  33   21   22 ar
  34   21   34 1
  35   22   23 ar
  36   22   25 1

#	End of record

