#	Name: ASD01140208
#	Creating user name:	WinNT
#	Creation time:	15. 06. 2019 19:00

#	Modifying user name:	WinNT
#	Modification time:	15. 06. 2019 19:00

#	Program:	/corina/corina34_cracker 3.40 0067  02.08.2006

@<TRIPOS>MOLECULE
ASD01140208
  45   48    0    0    0
SMALL
NO_CHARGES


@<TRIPOS>ATOM
   1 C1            -0.0206     1.3824    -0.1754 C.ar    
   2 C2            -0.0012    -0.0047    -0.1561 C.ar    
   3 C3            -1.1796    -0.7194    -0.1096 C.ar    
   4 C4            -2.3931    -0.0481    -0.0818 C.ar    
   5 C5            -2.4185     1.3567    -0.1011 C.ar    
   6 C6            -1.2152     2.0654    -0.1426 C.ar    
   7 N7            -3.7153    -0.4525    -0.0353 N.pl3   
   8 C8            -4.4823     0.6750    -0.0278 C.2     
   9 N9            -3.7238     1.7309    -0.0663 N.2     
  10 C10           -4.1782    -1.7698    -0.0026 C.ar    
  11 C11            1.2768     2.1475    -0.2263 C.3     
  12 O12            1.1150     3.4040     0.4347 O.3     
  13 C13            2.3725     1.3406     0.4732 C.3     
  14 C14            1.6714     2.3858    -1.6852 C.3     
  15 N15           -3.3111    -2.7677    -0.0154 N.ar    
  16 C16           -3.7091    -4.0335     0.0150 C.ar    
  17 C17           -5.0641    -4.3499     0.0618 C.ar    
  18 C18           -5.9975    -3.3257     0.0763 C.ar    
  19 C19           -5.5455    -2.0168     0.0489 C.ar    
  20 C20           -2.7008    -5.1214    -0.0015 C.ar    
  21 C21           -1.6653    -5.1010    -0.9379 C.ar    
  22 C22           -2.7820    -6.1601     0.9192 C.ar    
  23 C23           -1.8304    -7.1795     0.8976 C.ar    
  24 C24           -0.8022    -7.1510    -0.0479 C.ar    
  25 C25           -0.7247    -6.1143    -0.9553 C.ar    
  26 Cl26          -1.5589    -3.8008    -2.0832 Cl      
  27 C27           -1.9067    -8.2526     1.8427 C.1     
  28 N28           -1.9672    -9.1039     2.5925 N.1     
  29 H29            0.9432    -0.5283    -0.1780 H       
  30 H30           -1.1577    -1.7991    -0.0951 H       
  31 H31           -1.2226     3.1453    -0.1575 H       
  32 H32           -5.5617     0.6890     0.0055 H       
  33 H33            0.4348     3.9694     0.0438 H       
  34 H34            2.4959     0.3822    -0.0310 H       
  35 H35            3.3108     1.8940     0.4364 H       
  36 H36            2.0913     1.1709     1.5126 H       
  37 H37            0.8908     2.9606    -2.1835 H       
  38 H38            2.6098     2.9392    -1.7220 H       
  39 H39            1.7948     1.4273    -2.1894 H       
  40 H40           -5.3839    -5.3811     0.0861 H       
  41 H41           -7.0547    -3.5435     0.1120 H       
  42 H42           -6.2481    -1.1966     0.0597 H       
  43 H43           -3.5785    -6.1774     1.6484 H       
  44 H44           -0.0643    -7.9394    -0.0658 H       
  45 H45            0.0718    -6.0962    -1.6845 H       
@<TRIPOS>BOND
   1    1    2 ar
   2    1   11 1
   3    1    6 ar
   4    2    3 ar
   5    2   29 1
   6    3    4 ar
   7    3   30 1
   8    4    5 ar
   9    4    7 1
  10    5    6 ar
  11    5    9 1
  12    6   31 1
  13    7    8 1
  14    7   10 1
  15    8    9 2
  16    8   32 1
  17   10   15 ar
  18   10   19 ar
  19   11   12 1
  20   11   13 1
  21   11   14 1
  22   12   33 1
  23   13   34 1
  24   13   35 1
  25   13   36 1
  26   14   37 1
  27   14   38 1
  28   14   39 1
  29   15   16 ar
  30   16   17 ar
  31   16   20 1
  32   17   18 ar
  33   17   40 1
  34   18   19 ar
  35   18   41 1
  36   19   42 1
  37   20   21 ar
  38   20   22 ar
  39   21   26 1
  40   21   25 ar
  41   22   23 ar
  42   22   43 1
  43   23   24 ar
  44   23   27 1
  45   24   25 ar
  46   24   44 1
  47   25   45 1
  48   27   28 3

#	End of record

