#	Name: ASD01120156
#	Creating user name:	WinNT
#	Creation time:	15. 06. 2019 18:59

#	Modifying user name:	WinNT
#	Modification time:	15. 06. 2019 18:59

#	Program:	/corina/corina34_cracker 3.40 0067  02.08.2006

@<TRIPOS>MOLECULE
ASD01120156
  39   41    0    0    0
SMALL
NO_CHARGES


@<TRIPOS>ATOM
   1 C1            -0.0583     1.4178     0.6797 C.ar    
   2 C2            -0.0450     0.0189     0.7694 C.ar    
   3 C3            -1.2117    -0.7044     0.6566 C.ar    
   4 C4            -2.4227    -0.0325     0.4503 C.ar    
   5 C5            -2.4283     1.3816     0.3608 C.ar    
   6 C6            -1.2292     2.0936     0.4843 C.ar    
   7 N7            -3.5867    -0.6906     0.3334 N.ar    
   8 C8            -4.7055    -0.0337     0.1401 C.ar    
   9 N9            -4.7592     1.2857     0.0500 N.ar    
  10 C10           -3.6674     2.0325     0.1516 C.ar    
  11 C11           -5.1167     5.2100    -0.7692 C.ar    
  12 C12           -4.9821     4.0391    -0.0342 C.ar    
  13 C13           -6.0863     3.4965     0.6107 C.ar    
  14 C14           -7.3145     4.1228     0.5190 C.ar    
  15 C15           -7.4448     5.2891    -0.2147 C.ar    
  16 C16           -6.3474     5.8308    -0.8577 C.ar    
  17 N17           -3.7382     3.4079     0.0561 N.pl3   
  18 Br18          -8.8188     3.3856     1.3963 Br      
  19 O19            1.1315    -0.6304     0.9691 O.3     
  20 O20            1.1066     2.1100     0.7942 O.3     
  21 C21            1.0797    -2.0561     1.0517 C.3     
  22 C22            1.0279     3.5333     0.6941 C.3     
  23 C23           -5.9872    -0.8163     0.0145 C.3     
  24 H24           -1.1926    -1.7819     0.7265 H       
  25 H25           -1.2288     3.1715     0.4167 H       
  26 H26           -4.2590     5.6366    -1.2679 H       
  27 H27           -5.9851     2.5860     1.1827 H       
  28 H28           -8.4058     5.7768    -0.2853 H       
  29 H29           -6.4524     6.7409    -1.4298 H       
  30 H30           -2.9248     3.9363     0.0516 H       
  31 H31            0.4387    -2.3489     1.8832 H       
  32 H32            0.6766    -2.4594     0.1227 H       
  33 H33            2.0843    -2.4475     1.2120 H       
  34 H34            0.6188     3.8071    -0.2784 H       
  35 H35            0.3802     3.9177     1.4821 H       
  36 H36            2.0247     3.9608     0.8024 H       
  37 H37           -6.4346    -0.9416     1.0006 H       
  38 H38           -6.6796    -0.2782    -0.6329 H       
  39 H39           -5.7745    -1.7953    -0.4150 H       
@<TRIPOS>BOND
   1    1    2 ar
   2    1   20 1
   3    1    6 ar
   4    2    3 ar
   5    2   19 1
   6    3    4 ar
   7    3   24 1
   8    4    5 ar
   9    4    7 ar
  10    5    6 ar
  11    5   10 ar
  12    6   25 1
  13    7    8 ar
  14    8    9 ar
  15    8   23 1
  16    9   10 ar
  17   10   17 1
  18   11   12 ar
  19   11   16 ar
  20   11   26 1
  21   12   13 ar
  22   12   17 1
  23   13   14 ar
  24   13   27 1
  25   14   15 ar
  26   14   18 1
  27   15   16 ar
  28   15   28 1
  29   16   29 1
  30   17   30 1
  31   19   21 1
  32   20   22 1
  33   21   31 1
  34   21   32 1
  35   21   33 1
  36   22   34 1
  37   22   35 1
  38   22   36 1
  39   23   37 1
  40   23   38 1
  41   23   39 1

#	End of record

