#	Name: ASD01811562
#	Creating user name:	WinNT
#	Creation time:	15. 06. 2019 19:26

#	Modifying user name:	WinNT
#	Modification time:	15. 06. 2019 19:26

#	Program:	/corina/corina34_cracker 3.40 0067  02.08.2006

@<TRIPOS>MOLECULE
ASD01811562
  45   47    0    0    0
SMALL
NO_CHARGES


@<TRIPOS>ATOM
   1 C1             0.0003     1.4675     0.1838 C.2     
   2 C2             0.0107    -0.0067     0.0871 C.ar    
   3 C3             1.1559    -0.6713    -0.3594 C.ar    
   4 C4             1.1662    -2.0485    -0.4505 C.ar    
   5 C5             0.0466    -2.7782    -0.1010 C.ar    
   6 C6            -1.1036    -2.1268     0.3465 C.ar    
   7 C7            -1.1198    -0.7384     0.4465 C.ar    
   8 O8             1.0219     2.0960    -0.0084 O.2     
   9 O9            -1.1433     2.1150     0.4797 O.3     
  10 C10            0.0671    -4.2816    -0.2037 C.3     
  11 C11            2.3817     0.1170    -0.7428 C.3     
  12 C12           -2.3029    -2.9115     0.7197 C.2     
  13 N13           -3.4930    -2.3296     1.0709 N.pl3   
  14 C14           -4.4605    -3.3960     1.3753 C.3     
  15 C15           -3.6411    -4.6901     1.1498 C.3     
  16 N16           -2.3184    -4.2028     0.7368 N.2     
  17 C17           -3.5290    -5.3791     2.5246 C.3     
  18 C18           -3.7164    -4.2295     3.5450 C.3     
  19 C19           -4.8055    -3.3545     2.8772 C.3     
  20 O20           -4.1732    -4.7362     4.8006 O.3     
  21 C21           -3.1227    -5.0571     5.7147 C.3     
  22 O22           -4.2301    -5.5324     0.1570 O.3     
  23 C23           -1.0793     3.5635     0.5582 C.3     
  24 H24            2.0533    -2.5577    -0.7969 H       
  25 H25           -2.0060    -0.2302     0.7969 H       
  26 H26            0.2903    -4.7095     0.7736 H       
  27 H27           -0.9067    -4.6360    -0.5417 H       
  28 H28            0.8325    -4.5866    -0.9173 H       
  29 H29            2.9444     0.3731     0.1549 H       
  30 H30            3.0067    -0.4822    -1.4048 H       
  31 H31            2.0806     1.0305    -1.2557 H       
  32 H32           -3.6679    -1.3764     1.1122 H       
  33 H33           -5.3444    -3.3473     0.7394 H       
  34 H34           -4.3150    -6.1251     2.6423 H       
  35 H35           -2.5469    -5.8371     2.6425 H       
  36 H36           -2.7907    -3.6672     3.6677 H       
  37 H37           -4.7554    -2.3321     3.2516 H       
  38 H38           -5.7947    -3.7775     3.0528 H       
  39 H39           -3.5516    -5.4348     6.6429 H       
  40 H40           -2.4789    -5.8191     5.2754 H       
  41 H41           -2.5364    -4.1622     5.9231 H       
  42 H42           -3.7400    -6.3499    -0.0063 H       
  43 H43           -0.3693     3.8544     1.3324 H       
  44 H44           -0.7551     3.9654    -0.4017 H       
  45 H45           -2.0655     3.9580     0.8028 H       
@<TRIPOS>BOND
   1    1    2 1
   2    1    8 2
   3    1    9 1
   4    2    3 ar
   5    2    7 ar
   6    3    4 ar
   7    3   11 1
   8    4    5 ar
   9    4   24 1
  10    5    6 ar
  11    5   10 1
  12    6    7 ar
  13    6   12 1
  14    7   25 1
  15    9   23 1
  16   10   26 1
  17   10   27 1
  18   10   28 1
  19   11   29 1
  20   11   30 1
  21   11   31 1
  22   12   13 1
  23   12   16 2
  24   13   14 1
  25   13   32 1
  26   14   15 1
  27   14   19 1
  28   14   33 1
  29   15   16 1
  30   15   17 1
  31   15   22 1
  32   17   18 1
  33   17   34 1
  34   17   35 1
  35   18   19 1
  36   18   20 1
  37   18   36 1
  38   19   37 1
  39   19   38 1
  40   20   21 1
  41   21   39 1
  42   21   40 1
  43   21   41 1
  44   22   42 1
  45   23   43 1
  46   23   44 1
  47   23   45 1

#	End of record

