#	Name: ASD08070158
#	Creating user name:	WinNT
#	Creation time:	15. 06. 2019 21:14

#	Modifying user name:	WinNT
#	Modification time:	15. 06. 2019 21:14

#	Program:	/corina/corina34_cracker 3.40 0067  02.08.2006

@<TRIPOS>MOLECULE
ASD08070158
  40   42    0    0    0
SMALL
NO_CHARGES


@<TRIPOS>ATOM
   1 C1            -0.0167     1.3802     0.0096 C.ar    
   2 C2             0.0021    -0.0041     0.0020 C.ar    
   3 C3             1.2036    -0.6872    -0.0127 C.ar    
   4 C4             2.4016     0.0123    -0.0200 C.ar    
   5 C5             2.3876     1.4139    -0.0128 C.ar    
   6 C6             1.1652     2.0924     0.0022 C.ar    
   7 N7             4.2437     2.5072     1.1440 N.am    
   8 C8             3.6546     2.1683    -0.0199 C.2     
   9 C9             4.2089     5.1199     0.1356 C.ar    
  10 C10            5.2035     4.7287     1.0230 C.ar    
  11 C11            5.5024     3.2567     1.1369 C.3     
  12 C12            3.8928     6.4535    -0.0195 C.ar    
  13 C13            4.5725     7.4097     0.7123 C.ar    
  14 C14            5.5596     7.0232     1.5948 C.ar    
  15 C15            5.8764     5.6802     1.7556 C.ar    
  16 C16            6.9536     5.3275     2.7476 C.3     
  17 C17            7.4721     3.9129     2.4974 C.3     
  18 C18            6.2708     2.9630     2.4238 C.3     
  19 O19            4.1679     2.4847    -1.0759 O.2     
  20 Cl20           1.1343     3.8281     0.0106 Cl      
  21 O21            3.5816    -0.6573    -0.0335 O.3     
  22 Cl22           1.2135    -2.4231    -0.0216 Cl      
  23 C23            4.1346    -0.9714    -1.3132 C.3     
  24 H24           -0.9606     1.9050     0.0170 H       
  25 H25           -0.9277    -0.5535     0.0080 H       
  26 H26            3.8342     2.2549     1.9863 H       
  27 H27            3.6819     4.3740    -0.4408 H       
  28 H28            6.1019     2.9444     0.2818 H       
  29 H29            3.1174     6.7498    -0.7104 H       
  30 H30            4.3315     8.4557     0.5931 H       
  31 H31            6.0908     7.7708     2.1651 H       
  32 H32            7.7774     6.0347     2.6502 H       
  33 H33            6.5465     5.3878     3.7569 H       
  34 H34            8.0209     3.8842     1.5560 H       
  35 H35            8.1280     3.6125     3.3145 H       
  36 H36            5.6215     3.1250     3.2842 H       
  37 H37            6.6193     1.9303     2.4157 H       
  38 H38            5.0756    -1.5054    -1.1812 H       
  39 H39            3.4357    -1.5983    -1.8670 H       
  40 H40            4.3142    -0.0502    -1.8675 H       
@<TRIPOS>BOND
   1    1    2 ar
   2    1    6 ar
   3    1   24 1
   4    2    3 ar
   5    2   25 1
   6    3    4 ar
   7    3   22 1
   8    4    5 ar
   9    4   21 1
  10    5    6 ar
  11    5    8 1
  12    6   20 1
  13    7    8 am
  14    7   11 1
  15    7   26 1
  16    8   19 2
  17    9   10 ar
  18    9   12 ar
  19    9   27 1
  20   10   11 1
  21   10   15 ar
  22   11   18 1
  23   11   28 1
  24   12   13 ar
  25   12   29 1
  26   13   14 ar
  27   13   30 1
  28   14   15 ar
  29   14   31 1
  30   15   16 1
  31   16   17 1
  32   16   32 1
  33   16   33 1
  34   17   18 1
  35   17   34 1
  36   17   35 1
  37   18   36 1
  38   18   37 1
  39   21   23 1
  40   23   38 1
  41   23   39 1
  42   23   40 1

#	End of record

