#	Name: ASD04840028
#	Creating user name:	WinNT
#	Creation time:	15. 06. 2019 20:52

#	Modifying user name:	WinNT
#	Modification time:	15. 06. 2019 20:52

#	Program:	/corina/corina34_cracker 3.40 0067  02.08.2006

@<TRIPOS>MOLECULE
ASD04840028
  51   53    0    0    0
SMALL
NO_CHARGES


@<TRIPOS>ATOM
   1 C1             0.1753     1.4277     0.2920 C.3     
   2 C2             0.0258    -0.0694     0.0579 C.3     
   3 C3             0.6120    -0.8609     1.2344 C.3     
   4 C4             2.0451    -0.4599     1.5142 C.3     
   5 C5             2.3021     1.0469     1.5722 C.3     
   6 C6             1.6646     1.7684     0.3916 C.3     
   7 C7             2.6097    -1.1076     2.7786 C.3     
   8 C8             4.0979    -0.8496     2.8246 C.2     
   9 C9             4.6447     0.2410     2.2306 C.2     
  10 C10            3.8065     1.2477     1.5613 C.2     
  11 C11            6.1033     0.4060     2.2550 C.2     
  12 C12            6.6693     1.4742     1.6570 C.2     
  13 C13            5.8677     2.4368     1.0129 C.2     
  14 C14            4.4051     2.3074     0.9819 C.2     
  15 C15            1.7788     1.6654     2.8738 C.3     
  16 C16           -0.2937    -0.7264     2.4551 C.3     
  17 C17            0.5718    -2.3404     0.7819 C.3     
  18 O18            3.7128     3.2999     0.3623 O.3     
  19 O19            6.3906     3.3979     0.4695 O.2     
  20 C20            8.1670     1.6370     1.6774 C.3     
  21 C21            8.6968     1.6631     0.2423 C.3     
  22 C22            8.5280     2.9483     2.3782 C.3     
  23 O23            2.4280    -2.5261     2.7725 O.3     
  24 H24           -0.2498     1.9678    -0.5623 H       
  25 H25           -0.3497     1.7369     1.1889 H       
  26 H26           -1.0310    -0.3217    -0.0484 H       
  27 H27            0.5511    -0.3528    -0.8564 H       
  28 H28            2.6590    -0.8473     0.6683 H       
  29 H29            2.1670     1.4998    -0.5332 H       
  30 H30            1.7254     2.8514     0.5513 H       
  31 H31            2.1504    -0.7054     3.6757 H       
  32 H32            4.7351    -1.5512     3.3426 H       
  33 H33            6.7208    -0.3288     2.7509 H       
  34 H34            2.1997     1.1304     3.7252 H       
  35 H35            2.0731     2.7138     2.9219 H       
  36 H36            0.6916     1.5916     2.8998 H       
  37 H37           -1.2468    -1.2164     2.2561 H       
  38 H38            0.1836    -1.1960     3.3152 H       
  39 H39           -0.4649     0.3292     2.6659 H       
  40 H40            1.1700    -2.4605    -0.1214 H       
  41 H41            0.9760    -2.9732     1.5721 H       
  42 H42           -0.4588    -2.6297     0.5763 H       
  43 H43            4.2708     4.0015    -0.0003 H       
  44 H44            8.6160     0.8020     2.2153 H       
  45 H45            8.2478     2.4981    -0.2956 H       
  46 H46            9.7803     1.7809     0.2570 H       
  47 H47            8.4396     0.7289    -0.2570 H       
  48 H48            8.1506     2.9297     3.4006 H       
  49 H49            9.6115     3.0661     2.3930 H       
  50 H50            8.0790     3.7833     1.8403 H       
  51 H51            2.7738    -2.9703     3.5587 H       
@<TRIPOS>BOND
   1    1    2 1
   2    1    6 1
   3    1   24 1
   4    1   25 1
   5    2    3 1
   6    2   26 1
   7    2   27 1
   8    3   16 1
   9    3   17 1
  10    3    4 1
  11    4    5 1
  12    4    7 1
  13    4   28 1
  14    5    6 1
  15    5   15 1
  16    5   10 1
  17    6   29 1
  18    6   30 1
  19    7    8 1
  20    7   23 1
  21    7   31 1
  22    8    9 2
  23    8   32 1
  24    9   10 1
  25    9   11 1
  26   10   14 2
  27   11   12 2
  28   11   33 1
  29   12   13 1
  30   12   20 1
  31   13   14 1
  32   13   19 2
  33   14   18 1
  34   15   34 1
  35   15   35 1
  36   15   36 1
  37   16   37 1
  38   16   38 1
  39   16   39 1
  40   17   40 1
  41   17   41 1
  42   17   42 1
  43   18   43 1
  44   20   21 1
  45   20   22 1
  46   20   44 1
  47   21   45 1
  48   21   46 1
  49   21   47 1
  50   22   48 1
  51   22   49 1
  52   22   50 1
  53   23   51 1

#	End of record

