#	Name: ASD01881522
#	Creating user name:	WinNT
#	Creation time:	15. 06. 2019 19:42

#	Modifying user name:	WinNT
#	Modification time:	15. 06. 2019 19:42

#	Program:	/corina/corina34_cracker 3.40 0067  02.08.2006

@<TRIPOS>MOLECULE
ASD01881522
  73   78    0    0    0
SMALL
NO_CHARGES


@<TRIPOS>ATOM
   1 C1            -0.0168     1.3908     0.0097 C.ar    
   2 C2             0.0021    -0.0041     0.0020 C.ar    
   3 C3             1.2189    -0.6861    -0.0132 C.ar    
   4 C4             2.4025     0.0169    -0.0207 C.ar    
   5 C5             2.3848     1.4138    -0.0131 C.ar    
   6 C6             1.1656     2.0958     0.0022 C.ar    
   7 C7            -1.2721    -0.7623     0.0106 C.ar    
   8 C8            -1.2569    -2.1562     0.0030 C.ar    
   9 C9            -2.4459    -2.8566     0.0109 C.ar    
  10 C10           -3.6513    -2.1781     0.0265 C.ar    
  11 C11           -3.6726    -0.7950     0.0336 C.ar    
  12 C12           -2.4898    -0.0840     0.0321 C.ar    
  13 C13           -4.9464    -2.9488     0.0351 C.3     
  14 N14           -5.3524    -3.2059     1.4191 N.am    
  15 C15           -6.1261    -2.4061     2.1656 C.2     
  16 O16           -6.3510    -2.8695     3.4002 O.3     
  17 C17           -5.6675    -4.1447     3.5724 C.3     
  18 C18           -4.9824    -4.3872     2.2136 C.3     
  19 O19           -6.5816    -1.3557     1.7585 O.2     
  20 C20           -4.6449    -4.0512     4.6754 C.ar    
  21 C21           -4.3872    -5.1498     5.4740 C.ar    
  22 C22           -3.4492    -5.0640     6.4858 C.ar    
  23 C23           -2.7686    -3.8798     6.6988 C.ar    
  24 C24           -3.0256    -2.7815     5.8996 C.ar    
  25 C25           -3.9605    -2.8686     4.8851 C.ar    
  26 C26            3.6542     2.1692    -0.0206 C.2     
  27 N27            3.6365     3.5168    -0.0132 N.am    
  28 O28            4.7149     1.5753    -0.0335 O.2     
  29 C29            4.8954     4.2660    -0.0207 C.3     
  30 C30            4.6799     5.6674    -0.6216 C.3     
  31 N31            4.9951     6.6478     0.4400 N.3     
  32 C32            5.9382     5.9604     1.3589 C.3     
  33 C33            5.3791     4.5170     1.4260 C.3     
  34 C34            5.6014     7.8601    -0.1262 C.3     
  35 C35            5.6824     8.9249     0.9371 C.ar    
  36 C36            6.8048     9.0172     1.7387 C.ar    
  37 C37            6.8791     9.9939     2.7141 C.ar    
  38 C38            5.8312    10.8786     2.8877 C.ar    
  39 C39            4.7091    10.7869     2.0854 C.ar    
  40 C40            4.6367     9.8129     1.1071 C.ar    
  41 H41           -0.9595     1.9178     0.0170 H       
  42 H42            1.2324    -1.7660    -0.0188 H       
  43 H43            3.3445    -0.5113    -0.0322 H       
  44 H44            1.1507     3.1757     0.0078 H       
  45 H45           -0.3164    -2.6870    -0.0095 H       
  46 H46           -2.4354    -3.9366     0.0047 H       
  47 H47           -4.6167    -0.2705     0.0454 H       
  48 H48           -2.5076     0.9958     0.0376 H       
  49 H49           -5.7187    -2.3670    -0.4680 H       
  50 H50           -4.8086    -3.8966    -0.4852 H       
  51 H51           -6.3853    -4.9378     3.7817 H       
  52 H52           -5.3604    -5.2992     1.7516 H       
  53 H53           -3.9003    -4.4379     2.3341 H       
  54 H54           -4.9189    -6.0749     5.3076 H       
  55 H55           -3.2484    -5.9221     7.1101 H       
  56 H56           -2.0363    -3.8126     7.4897 H       
  57 H57           -2.4941    -1.8563     6.0663 H       
  58 H58           -4.1613    -2.0105     4.2607 H       
  59 H59            2.7902     3.9907    -0.0029 H       
  60 H60            5.6538     3.7245    -0.5861 H       
  61 H61            5.3463     5.8134    -1.4717 H       
  62 H62            3.6424     5.7811    -0.9359 H       
  63 H63            6.9474     5.9633     0.9472 H       
  64 H64            5.9224     6.4253     2.3447 H       
  65 H65            4.5463     4.4581     2.1268 H       
  66 H66            6.1642     3.8115     1.6982 H       
  67 H67            6.6038     7.6304    -0.4875 H       
  68 H68            4.9902     8.2193    -0.9542 H       
  69 H69            7.6235     8.3261     1.6032 H       
  70 H70            7.7557    10.0656     3.3409 H       
  71 H71            5.8889    11.6412     3.6502 H       
  72 H72            3.8903    11.4778     2.2212 H       
  73 H73            3.7601     9.7413     0.4804 H       
@<TRIPOS>BOND
   1    1    2 ar
   2    1    6 ar
   3    1   41 1
   4    2    3 ar
   5    2    7 1
   6    3    4 ar
   7    3   42 1
   8    4    5 ar
   9    4   43 1
  10    5    6 ar
  11    5   26 1
  12    6   44 1
  13    7    8 ar
  14    7   12 ar
  15    8    9 ar
  16    8   45 1
  17    9   10 ar
  18    9   46 1
  19   10   11 ar
  20   10   13 1
  21   11   12 ar
  22   11   47 1
  23   12   48 1
  24   13   14 1
  25   13   49 1
  26   13   50 1
  27   14   15 am
  28   14   18 1
  29   15   16 1
  30   15   19 2
  31   16   17 1
  32   17   18 1
  33   17   20 1
  34   17   51 1
  35   18   52 1
  36   18   53 1
  37   20   21 ar
  38   20   25 ar
  39   21   22 ar
  40   21   54 1
  41   22   23 ar
  42   22   55 1
  43   23   24 ar
  44   23   56 1
  45   24   25 ar
  46   24   57 1
  47   25   58 1
  48   26   27 am
  49   26   28 2
  50   27   29 1
  51   27   59 1
  52   29   30 1
  53   29   33 1
  54   29   60 1
  55   30   31 1
  56   30   61 1
  57   30   62 1
  58   31   32 1
  59   31   34 1
  60   32   33 1
  61   32   63 1
  62   32   64 1
  63   33   65 1
  64   33   66 1
  65   34   35 1
  66   34   67 1
  67   34   68 1
  68   35   36 ar
  69   35   40 ar
  70   36   37 ar
  71   36   69 1
  72   37   38 ar
  73   37   70 1
  74   38   39 ar
  75   38   71 1
  76   39   40 ar
  77   39   72 1
  78   40   73 1

#	End of record

