#	Name: ASD03320201
#	Creating user name:	WinNT
#	Creation time:	15. 06. 2019 20:36

#	Modifying user name:	WinNT
#	Modification time:	15. 06. 2019 20:36

#	Program:	/corina/corina34_cracker 3.40 0067  02.08.2006

@<TRIPOS>MOLECULE
ASD03320201
  40   42    0    0    0
SMALL
NO_CHARGES


@<TRIPOS>ATOM
   1 C1            -0.0604     1.5931    -0.0228 C.ar    
   2 C2            -0.2244     0.2298    -0.2743 C.ar    
   3 N3            -1.4122    -0.3336    -0.1928 N.ar    
   4 C4            -2.4908     0.3531     0.1264 C.ar    
   5 C5            -2.4170     1.7196     0.3939 C.ar    
   6 C6            -1.1786     2.3575     0.3250 C.ar    
   7 C7             1.2759     2.2180    -0.1168 C.2     
   8 O8             1.4083     3.4061     0.1041 O.2     
   9 N9             2.3476     1.4706    -0.4474 N.am    
  10 C10            3.5951     2.0790    -0.6332 C.ar    
  11 C11           -3.6380     2.4833     0.7525 C.ar    
  12 C12            3.9655     3.1597     0.1563 C.ar    
  13 C13            5.1957     3.7591    -0.0276 C.ar    
  14 C14            6.0615     3.2823    -1.0010 C.ar    
  15 C15            5.6923     2.2027    -1.7900 C.ar    
  16 C16            4.4649     1.5983    -1.6032 C.ar    
  17 O17            7.2725     3.8736    -1.1820 O.3     
  18 C18            8.1134     3.3309    -2.2020 C.3     
  19 F19            7.4636     3.4188    -3.4378 F       
  20 F20            9.3107     4.0529    -2.2523 F       
  21 F21            8.3892     1.9899    -1.9145 F       
  22 C22           -3.7048     3.2130     1.9418 C.ar    
  23 N23           -4.8116     3.8792     2.2227 N.ar    
  24 C24           -5.8410     3.8610     1.3994 C.ar    
  25 N25           -5.8196     3.1853     0.2677 N.ar    
  26 C26           -4.7501     2.4969    -0.0928 C.ar    
  27 C27           -3.8225    -0.3482     0.2029 C.3     
  28 F28           -3.6194    -1.7318     0.2413 F       
  29 F29           -4.4968     0.0564     1.3600 F       
  30 F30           -4.5876    -0.0202    -0.9215 F       
  31 H31            0.6334    -0.3705    -0.5392 H       
  32 H32           -1.0871     3.4146     0.5265 H       
  33 H33            2.2548     0.5112    -0.5566 H       
  34 H34            3.2913     3.5315     0.9136 H       
  35 H35            5.4839     4.5997     0.5863 H       
  36 H36            6.3667     1.8322    -2.5479 H       
  37 H37            4.1775     0.7578    -2.2175 H       
  38 H38           -2.8656     3.2322     2.6214 H       
  39 H39           -6.7296     4.4167     1.6603 H       
  40 H40           -4.7399     1.9457    -1.0215 H       
@<TRIPOS>BOND
   1    1    2 ar
   2    1    7 1
   3    1    6 ar
   4    2    3 ar
   5    2   31 1
   6    3    4 ar
   7    4    5 ar
   8    4   27 1
   9    5    6 ar
  10    5   11 1
  11    6   32 1
  12    7    8 2
  13    7    9 am
  14    9   10 1
  15    9   33 1
  16   10   12 ar
  17   10   16 ar
  18   11   22 ar
  19   11   26 ar
  20   12   13 ar
  21   12   34 1
  22   13   14 ar
  23   13   35 1
  24   14   15 ar
  25   14   17 1
  26   15   16 ar
  27   15   36 1
  28   16   37 1
  29   17   18 1
  30   18   19 1
  31   18   20 1
  32   18   21 1
  33   22   23 ar
  34   22   38 1
  35   23   24 ar
  36   24   25 ar
  37   24   39 1
  38   25   26 ar
  39   26   40 1
  40   27   28 1
  41   27   29 1
  42   27   30 1

#	End of record

