#	Name: ASD01230443
#	Creating user name:	WinNT
#	Creation time:	15. 06. 2019 19:14

#	Modifying user name:	WinNT
#	Modification time:	15. 06. 2019 19:14

#	Program:	/corina/corina34_cracker 3.40 0067  02.08.2006

@<TRIPOS>MOLECULE
ASD01230443
  54   56    0    0    0
SMALL
NO_CHARGES


@<TRIPOS>ATOM
   1 C1            -0.5569     0.7215    -0.3259 C.2     
   2 N2             0.1243    -0.0651    -1.1824 N.am    
   3 O3            -0.2468     1.8976    -0.1970 O.co2   
   4 O4            -1.4884     0.2606     0.3188 O.co2   
   5 C5             1.2995    -0.6918    -0.7693 C.ar    
   6 C6             2.3981     0.0774    -0.4028 C.ar    
   7 C7             3.5578    -0.5572     0.0056 C.ar    
   8 C8             3.5788    -1.9451     0.0334 C.ar    
   9 C9             2.4507    -2.6458    -0.3443 C.ar    
  10 N10            1.3570    -2.0132    -0.7245 N.ar    
  11 C11            2.3270     1.5820    -0.4501 C.3     
  12 C12            1.2905     2.0110    -1.4906 C.3     
  13 C13            1.2182     3.5385    -1.5387 C.3     
  14 C14            0.8124     4.0734    -0.1639 C.3     
  15 C15            1.8489     3.6444     0.8766 C.3     
  16 C16            1.9211     2.1168     0.9247 C.3     
  17 C17            0.7412     5.5780    -0.2112 C.ar    
  18 C18           -0.4484     6.2229     0.0711 C.ar    
  19 C19           -0.5137     7.6030     0.0277 C.ar    
  20 C20            0.6107     8.3383    -0.2977 C.ar    
  21 C21            1.8006     7.6934    -0.5792 C.ar    
  22 C22            1.8670     6.3135    -0.5315 C.ar    
  23 O23            3.6066     2.1083    -0.8073 O.3     
  24 C24           -0.3699    -0.2617    -2.5475 C.3     
  25 C25           -1.6897     0.4915    -2.7255 C.3     
  26 C26            0.6605     0.2721    -3.5447 C.3     
  27 C27           -0.5965    -1.7540    -2.7978 C.3     
  28 H28            4.4272     0.0142     0.2958 H       
  29 H29            4.4684    -2.4712     0.3469 H       
  30 H30            2.4622    -3.7256    -0.3243 H       
  31 H31            1.5796     1.6299    -2.4700 H       
  32 H32            0.3145     1.6095    -1.2182 H       
  33 H33            2.1943     3.9401    -1.8111 H       
  34 H34            0.4798     3.8442    -2.2799 H       
  35 H35           -0.1636     3.6719     0.1086 H       
  36 H36            2.8249     4.0459     0.6042 H       
  37 H37            1.5597     4.0254     1.8560 H       
  38 H38            0.9451     1.7153     1.1971 H       
  39 H39            2.6595     1.8112     1.6659 H       
  40 H40           -1.3270     5.6485     0.3254 H       
  41 H41           -1.4434     8.1068     0.2476 H       
  42 H42            0.5595     9.4165    -0.3324 H       
  43 H43            2.6791     8.2678    -0.8337 H       
  44 H44            2.7976     5.8098    -0.7478 H       
  45 H45            4.3138     1.8754    -0.1904 H       
  46 H46           -1.5283     1.5546    -2.5471 H       
  47 H47           -2.0574     0.3452    -3.7411 H       
  48 H48           -2.4237     0.1112    -2.0150 H       
  49 H49            1.6007    -0.2645    -3.4179 H       
  50 H50            0.2928     0.1258    -4.5603 H       
  51 H51            0.8219     1.3352    -3.3663 H       
  52 H52           -1.3305    -2.1342    -2.0874 H       
  53 H53           -0.9641    -1.9003    -3.8135 H       
  54 H54            0.3438    -2.2905    -2.6710 H       
@<TRIPOS>BOND
   1    1    2 am
   2    1    3 ar
   3    1    4 ar
   4    2    5 1
   5    2   24 1
   6    5    6 ar
   7    5   10 ar
   8    6    7 ar
   9    6   11 1
  10    7    8 ar
  11    7   28 1
  12    8    9 ar
  13    8   29 1
  14    9   10 ar
  15    9   30 1
  16   11   12 1
  17   11   16 1
  18   11   23 1
  19   12   13 1
  20   12   31 1
  21   12   32 1
  22   13   14 1
  23   13   33 1
  24   13   34 1
  25   14   15 1
  26   14   17 1
  27   14   35 1
  28   15   16 1
  29   15   36 1
  30   15   37 1
  31   16   38 1
  32   16   39 1
  33   17   18 ar
  34   17   22 ar
  35   18   19 ar
  36   18   40 1
  37   19   20 ar
  38   19   41 1
  39   20   21 ar
  40   20   42 1
  41   21   22 ar
  42   21   43 1
  43   22   44 1
  44   23   45 1
  45   24   25 1
  46   24   27 1
  47   24   26 1
  48   25   46 1
  49   25   47 1
  50   25   48 1
  51   26   49 1
  52   26   50 1
  53   26   51 1
  54   27   52 1
  55   27   53 1
  56   27   54 1

#	End of record

