#	Name: ASD01882963
#	Creating user name:	WinNT
#	Creation time:	15. 06. 2019 19:45

#	Modifying user name:	WinNT
#	Modification time:	15. 06. 2019 19:45

#	Program:	/corina/corina34_cracker 3.40 0067  02.08.2006

@<TRIPOS>MOLECULE
ASD01882963
  41   43    0    0    0
SMALL
NO_CHARGES


@<TRIPOS>ATOM
   1 C1            -0.1409     0.9066     0.0034 C.2     
   2 C2            -0.3087    -0.4712    -0.2217 C.2     
   3 C3            -1.6156    -0.9809    -0.3527 C.2     
   4 C4            -2.6775    -0.1487    -0.2612 C.2     
   5 N5            -2.5163     1.1820    -0.0442 N.am    
   6 C6            -1.2931     1.7259     0.0949 C.2     
   7 C7            -3.6985     2.0425     0.0462 C.3     
   8 O8            -4.3221     1.8630     1.3194 O.3     
   9 C9             0.8625    -1.3668    -0.3196 C.ar    
  10 C10            1.1684     1.4695     0.1434 C.1     
  11 N11            2.2070     1.9161     0.2544 N.1     
  12 O12           -1.1764     2.9237     0.2901 O.2     
  13 C13           -5.4823     2.5359     1.5386 C.ar    
  14 C14           -6.1980     2.3244     2.7080 C.ar    
  15 C15           -7.3771     3.0096     2.9284 C.ar    
  16 C16           -7.8440     3.9057     1.9846 C.ar    
  17 C17           -7.1328     4.1180     0.8181 C.ar    
  18 C18           -5.9500     3.4398     0.5957 C.ar    
  19 C19            1.0658    -2.3613     0.6402 C.ar    
  20 C20            2.1588    -3.1941     0.5455 C.ar    
  21 C21            3.0588    -3.0460    -0.5031 C.ar    
  22 C22            2.8601    -2.0579    -1.4598 C.ar    
  23 C23            1.7663    -1.2249    -1.3753 C.ar    
  24 O24            4.1351    -3.8685    -0.5927 O.3     
  25 C25            5.0200    -3.6613    -1.6955 C.3     
  26 H26           -1.7693    -2.0357    -0.5264 H       
  27 H27           -3.6747    -0.5508    -0.3631 H       
  28 H28           -3.3992     3.0843    -0.0681 H       
  29 H29           -4.4019     1.7777    -0.7433 H       
  30 H30           -5.8338     1.6243     3.4454 H       
  31 H31           -7.9348     2.8450     3.8385 H       
  32 H32           -8.7661     4.4404     2.1588 H       
  33 H33           -7.5000     4.8179     0.0821 H       
  34 H34           -5.3948     3.6060    -0.3156 H       
  35 H35            0.3670    -2.4768     1.4556 H       
  36 H36            2.3169    -3.9630     1.2873 H       
  37 H37            3.5619    -1.9458    -2.2730 H       
  38 H38            1.6124    -0.4574    -2.1195 H       
  39 H39            4.4733    -3.7915    -2.6295 H       
  40 H40            5.4264    -2.6509    -1.6503 H       
  41 H41            5.8352    -4.3833    -1.6480 H       
@<TRIPOS>BOND
   1    1    2 2
   2    1   10 1
   3    1    6 1
   4    2    3 1
   5    2    9 1
   6    3    4 2
   7    3   26 1
   8    4    5 1
   9    4   27 1
  10    5    7 1
  11    5    6 am
  12    6   12 2
  13    7    8 1
  14    7   28 1
  15    7   29 1
  16    8   13 1
  17    9   19 ar
  18    9   23 ar
  19   10   11 3
  20   13   14 ar
  21   13   18 ar
  22   14   15 ar
  23   14   30 1
  24   15   16 ar
  25   15   31 1
  26   16   17 ar
  27   16   32 1
  28   17   18 ar
  29   17   33 1
  30   18   34 1
  31   19   20 ar
  32   19   35 1
  33   20   21 ar
  34   20   36 1
  35   21   22 ar
  36   21   24 1
  37   22   23 ar
  38   22   37 1
  39   23   38 1
  40   24   25 1
  41   25   39 1
  42   25   40 1
  43   25   41 1

#	End of record

