#	Name: ASD02860001
#	Creating user name:	WinNT
#	Creation time:	15. 06. 2019 20:26

#	Modifying user name:	WinNT
#	Modification time:	15. 06. 2019 20:26

#	Program:	/corina/corina34_cracker 3.40 0067  02.08.2006

@<TRIPOS>MOLECULE
ASD02860001
 120  123    0    0    0
SMALL
NO_CHARGES


@<TRIPOS>ATOM
   1 N1            -0.0178     1.4648     0.0101 N.3     
   2 C2             0.0021    -0.0041     0.0020 C.3     
   3 C3             0.7309    -0.5033     1.2229 C.2     
   4 C4             0.7182    -0.4975    -1.2568 C.3     
   5 N5             0.5413    -1.7671     1.6512 N.am    
   6 O6             1.4882     0.2322     1.8201 O.2     
   7 C7            -0.0771    -0.1029    -2.4745 C.2     
   8 C8            -0.9774    -0.8607    -3.1203 C.2     
   9 N9            -1.4963    -0.1676    -4.1798 N.pl3   
  10 C10           -0.9282     1.0850    -4.2431 C.ar    
  11 C11           -0.0190     1.1828    -3.1741 C.ar    
  12 C12           -1.0907     2.1682    -5.1009 C.ar    
  13 C13           -0.3582     3.3171    -4.8985 C.ar    
  14 C14            0.5424     3.4064    -3.8457 C.ar    
  15 C15            0.7123     2.3574    -2.9869 C.ar    
  16 C16            1.2499    -2.2524     2.8380 C.3     
  17 C17            1.3778    -3.7523     2.7684 C.2     
  18 N18            1.9987    -4.4224     3.7593 N.am    
  19 O19            0.9220    -4.3564     1.8207 O.2     
  20 C20            0.4662    -1.8651     4.0937 C.3     
  21 C21            0.4432    -0.3414     4.2309 C.3     
  22 C22           -0.3404     0.0459     5.4866 C.3     
  23 N23           -0.3625     1.5048     5.6179 N.pl3   
  24 C24           -1.0133     2.0898     6.6782 C.2     
  25 N25           -1.0340     3.4589     6.8015 N.pl3   
  26 N26           -1.6107     1.3464     7.5667 N.2     
  27 C27            2.1231    -5.8805     3.6916 C.3     
  28 C28            2.8631    -6.3874     4.9311 C.3     
  29 C29            2.9930    -7.9102     4.8604 C.3     
  30 N30            3.7034    -8.3968     6.0505 N.3     
  31 C31            3.8470    -9.8584     6.0170 C.3     
  32 C32            4.5901   -10.3268     7.2698 C.3     
  33 C33            4.7396   -11.8490     7.2348 C.3     
  34 N34            5.4511   -12.2975     8.4344 N.am    
  35 C35            5.6989   -13.6092     8.6200 C.2     
  36 C36            6.4308   -14.0705     9.8540 C.3     
  37 O37            5.3330   -14.4183     7.7940 O.2     
  38 N38            6.5740   -15.5281     9.8205 N.am    
  39 C39            6.7183   -16.2176    10.9695 C.2     
  40 C40            6.8656   -17.7170    10.9351 C.3     
  41 O41            6.7296   -15.6314    12.0312 O.2     
  42 N42            7.4713   -18.1785    12.1914 N.3     
  43 C43            5.4880   -18.3610    10.7663 C.3     
  44 C44            5.6462   -19.8514    10.6088 C.2     
  45 C45            5.7114   -20.5296     9.4522 C.2     
  46 N46            5.8558   -21.8669     9.7032 N.pl3   
  47 C47            5.8878   -22.0874    11.0619 C.ar    
  48 C48            5.7643   -20.8341    11.6887 C.ar    
  49 C49            6.0153   -23.2309    11.8440 C.ar    
  50 C50            6.0128   -23.1243    13.2173 C.ar    
  51 C51            5.8844   -21.8857    13.8312 C.ar    
  52 C52            5.7654   -20.7491    13.0824 C.ar    
  53 C53            7.8163   -13.4228     9.8972 C.3     
  54 C54            8.5108   -13.7915    11.2097 C.3     
  55 C55            9.8963   -13.1438    11.2529 C.3     
  56 N56           10.5614   -13.4968    12.5096 N.pl3   
  57 C57           11.8259   -13.0264    12.7739 C.2     
  58 N58           12.4330   -12.2664    11.9064 N.2     
  59 N59           12.4501   -13.3577    13.9532 N.pl3   
  60 H60            0.9191     1.8392     0.0032 H       
  61 H61           -0.5563     1.8234    -0.7642 H       
  62 H62           -1.0205    -0.3814     0.0098 H       
  63 H63            1.7103    -0.0491    -1.3098 H       
  64 H64            0.8116    -1.5829    -1.2198 H       
  65 H65           -0.0643    -2.3553     1.1735 H       
  66 H66           -1.2511    -1.8685    -2.8449 H       
  67 H67           -2.1646    -0.5081    -4.7949 H       
  68 H68           -1.7886     2.1084    -5.9230 H       
  69 H69           -0.4856     4.1568    -5.5657 H       
  70 H70            1.1092     4.3143    -3.7011 H       
  71 H71            1.4147     2.4341    -2.1700 H       
  72 H72            2.2428    -1.8044     2.8769 H       
  73 H73            2.3633    -3.9392     4.5173 H       
  74 H74           -0.5548    -2.2382     4.0143 H       
  75 H75            0.9454    -2.3016     4.9701 H       
  76 H76            1.4643     0.0317     4.3103 H       
  77 H77           -0.0359     0.0951     3.3545 H       
  78 H78           -1.3615    -0.3273     5.4071 H       
  79 H79            0.1387    -0.3906     6.3629 H       
  80 H80            0.0822     2.0580     4.9567 H       
  81 H81           -0.5894     4.0122     6.1403 H       
  82 H82           -1.4932     3.8717     7.5496 H       
  83 H83           -2.0699     1.7592     8.3148 H       
  84 H84            1.1301    -6.3285     3.6528 H       
  85 H85            2.6814    -6.1564     2.7970 H       
  86 H86            3.8560    -5.9395     4.9700 H       
  87 H87            2.3048    -6.1115     5.8257 H       
  88 H88            2.0000    -8.3581     4.8216 H       
  89 H89            3.5512    -8.1861     3.9658 H       
  90 H90            4.6019    -7.9473     6.1443 H       
  91 H91            2.8600   -10.3199     5.9862 H       
  92 H92            4.4112   -10.1478     5.1304 H       
  93 H93            5.5771    -9.8653     7.3006 H       
  94 H94            4.0258   -10.0374     8.1563 H       
  95 H95            3.7526   -12.3105     7.2040 H       
  96 H96            5.3038   -12.1385     6.3483 H       
  97 H97            5.7438   -11.6504     9.0951 H       
  98 H98            5.8666   -13.7811    10.7405 H       
  99 H99            6.5649   -15.9970     8.9714 H       
 100 H100           7.5041   -18.0002    10.0984 H       
 101 H101           8.4080   -17.8180    12.2950 H       
 102 H102           6.8978   -17.9278    12.9828 H       
 103 H103           4.8787   -18.1512    11.6454 H       
 104 H104           5.0016   -17.9517     9.8809 H       
 105 H105           5.6573   -20.0856     8.4692 H       
 106 H106           5.9249   -22.5569     9.0249 H       
 107 H107           6.1154   -24.1991    11.3759 H       
 108 H108           6.1115   -24.0132    13.8227 H       
 109 H109           5.8840   -21.8195    14.9091 H       
 110 H110           5.6659   -19.7889    13.5668 H       
 111 H111           8.4116   -13.7819     9.0577 H       
 112 H112           7.7131   -12.3396     9.8325 H       
 113 H113           7.9155   -13.4324    12.0492 H       
 114 H114           8.6140   -14.8747    11.2744 H       
 115 H115          10.4916   -13.5029    10.4134 H       
 116 H116           9.7932   -12.0606    11.1882 H       
 117 H117          10.1096   -14.0625    13.1552 H       
 118 H118          13.3252   -11.9345    12.0928 H       
 119 H119          11.9983   -13.9234    14.5989 H       
 120 H120          13.3423   -13.0259    14.1397 H       
@<TRIPOS>BOND
   1    1    2 1
   2    1   60 1
   3    1   61 1
   4    2    3 1
   5    2    4 1
   6    2   62 1
   7    3    5 am
   8    3    6 2
   9    4    7 1
  10    4   63 1
  11    4   64 1
  12    5   16 1
  13    5   65 1
  14    7    8 2
  15    7   11 1
  16    8    9 1
  17    8   66 1
  18    9   10 1
  19    9   67 1
  20   10   11 ar
  21   10   12 ar
  22   11   15 ar
  23   12   13 ar
  24   12   68 1
  25   13   14 ar
  26   13   69 1
  27   14   15 ar
  28   14   70 1
  29   15   71 1
  30   16   17 1
  31   16   20 1
  32   16   72 1
  33   17   18 am
  34   17   19 2
  35   18   27 1
  36   18   73 1
  37   20   21 1
  38   20   74 1
  39   20   75 1
  40   21   22 1
  41   21   76 1
  42   21   77 1
  43   22   23 1
  44   22   78 1
  45   22   79 1
  46   23   24 1
  47   23   80 1
  48   24   25 1
  49   24   26 2
  50   25   81 1
  51   25   82 1
  52   26   83 1
  53   27   28 1
  54   27   84 1
  55   27   85 1
  56   28   29 1
  57   28   86 1
  58   28   87 1
  59   29   30 1
  60   29   88 1
  61   29   89 1
  62   30   31 1
  63   30   90 1
  64   31   32 1
  65   31   91 1
  66   31   92 1
  67   32   33 1
  68   32   93 1
  69   32   94 1
  70   33   34 1
  71   33   95 1
  72   33   96 1
  73   34   35 am
  74   34   97 1
  75   35   36 1
  76   35   37 2
  77   36   38 1
  78   36   53 1
  79   36   98 1
  80   38   39 am
  81   38   99 1
  82   39   40 1
  83   39   41 2
  84   40   42 1
  85   40   43 1
  86   40  100 1
  87   42  101 1
  88   42  102 1
  89   43   44 1
  90   43  103 1
  91   43  104 1
  92   44   45 2
  93   44   48 1
  94   45   46 1
  95   45  105 1
  96   46   47 1
  97   46  106 1
  98   47   48 ar
  99   47   49 ar
 100   48   52 ar
 101   49   50 ar
 102   49  107 1
 103   50   51 ar
 104   50  108 1
 105   51   52 ar
 106   51  109 1
 107   52  110 1
 108   53   54 1
 109   53  111 1
 110   53  112 1
 111   54   55 1
 112   54  113 1
 113   54  114 1
 114   55   56 1
 115   55  115 1
 116   55  116 1
 117   56   57 1
 118   56  117 1
 119   57   58 2
 120   57   59 1
 121   58  118 1
 122   59  119 1
 123   59  120 1

#	End of record

