#	Name: ASD09116069
#	Creating user name:	WinNT
#	Creation time:	15. 06. 2019 21:20

#	Modifying user name:	WinNT
#	Modification time:	15. 06. 2019 21:20

#	Program:	/corina/corina34_cracker 3.40 0067  02.08.2006

@<TRIPOS>MOLECULE
ASD09116069
  71   75    0    0    0
SMALL
NO_CHARGES


@<TRIPOS>ATOM
   1 C1            -0.5598     1.3815    -0.4016 C.ar    
   2 N2            -0.4536    -0.0061    -0.4512 N.pl3   
   3 N3            -1.3905    -0.9037    -0.9882 N.2     
   4 C4            -0.8999    -2.1094    -0.8313 C.2     
   5 N5             0.2910    -2.0237    -0.2269 N.2     
   6 C6             0.5809    -0.7616     0.0056 C.2     
   7 N7             1.7276    -0.2887     0.6137 N.pl3   
   8 N8            -1.5206    -3.2929    -1.2300 N.pl3   
   9 N9             0.4217     2.0832     0.1428 N.ar    
  10 N10           -1.6401     1.9646    -0.9064 N.ar    
  11 C11           -1.7609     3.2735    -0.8676 C.ar    
  12 C12           -0.7482     4.0424    -0.3097 C.ar    
  13 C13            0.3631     3.4063     0.2048 C.ar    
  14 C14           -2.9721     3.9978    -1.3899 C.3     
  15 C15           -2.7676     4.5189    -2.7765 C.3     
  16 C16           -1.9646     5.7926    -2.9537 C.3     
  17 C17           -0.4621     5.5102    -2.7715 C.3     
  18 C18           -0.0254     6.1277    -1.4137 C.3     
  19 C19           -0.8932     5.5381    -0.3030 C.3     
  20 C20           -0.8463    -4.5133    -1.1058 C.ar    
  21 C21           -1.5578    -5.6768    -0.8441 C.ar    
  22 C22           -0.8917    -6.8803    -0.7216 C.ar    
  23 C23            0.4877    -6.9271    -0.8595 C.ar    
  24 C24            1.1993    -5.7654    -1.1210 C.ar    
  25 C25            0.5342    -4.5621    -1.2498 C.ar    
  26 O26            1.1430    -8.1125    -0.7379 O.3     
  27 C27            2.5635    -8.0874    -0.8917 C.3     
  28 C28            3.1199    -9.5026    -0.7227 C.3     
  29 N29            4.5801    -9.4767    -0.8808 N.3     
  30 C30            2.7670   -10.0263     0.6708 C.3     
  31 C31            2.5084   -10.4210    -1.7827 C.3     
  32 C32            5.1442   -10.8368    -0.8032 C.3     
  33 C33            4.9620    -8.8821    -2.1795 C.3     
  34 C34            6.2435    -9.6432    -2.6015 C.3     
  35 C35            5.9312   -11.0805    -2.1081 C.3     
  36 H36            2.4093    -0.9103     0.9133 H       
  37 H37            1.8510     0.6650     0.7410 H       
  38 H38           -2.4197    -3.2704    -1.5934 H       
  39 H39            1.1657     3.9737     0.6524 H       
  40 H40           -3.8201     3.3129    -1.3913 H       
  41 H41           -3.1967     4.8340    -0.7277 H       
  42 H42           -2.2783     3.7358    -3.3556 H       
  43 H43           -3.7510     4.6837    -3.2166 H       
  44 H44           -2.1377     6.1917    -3.9531 H       
  45 H45           -2.2855     6.5269    -2.2149 H       
  46 H46           -0.2871     4.4344    -2.7613 H       
  47 H47            0.1011     5.9691    -3.5841 H       
  48 H48            1.0214     5.8903    -1.2243 H       
  49 H49           -0.1570     7.2092    -1.4450 H       
  50 H50           -1.9362     5.8042    -0.4751 H       
  51 H51           -0.5693     5.9316     0.6605 H       
  52 H52           -2.6318    -5.6405    -0.7360 H       
  53 H53           -1.4449    -7.7853    -0.5181 H       
  54 H54            2.2733    -5.8028    -1.2282 H       
  55 H55            1.0883    -3.6577    -1.4537 H       
  56 H56            2.8149    -7.7143    -1.8845 H       
  57 H57            2.9992    -7.4331    -0.1366 H       
  58 H58            1.6835   -10.0455     0.7882 H       
  59 H59            3.1634   -11.0345     0.7912 H       
  60 H60            3.2027    -9.3720     1.4260 H       
  61 H61            2.7985   -10.0746    -2.7746 H       
  62 H62            2.8689   -11.4387    -1.6333 H       
  63 H63            1.4220   -10.4039    -1.6952 H       
  64 H64            5.8140   -10.9121     0.0534 H       
  65 H65            4.3401   -11.5671    -0.7133 H       
  66 H66            4.1710    -9.0344    -2.9138 H       
  67 H67            5.1731    -7.8191    -2.0627 H       
  68 H68            6.3722    -9.6212    -3.6836 H       
  69 H69            7.1214    -9.2394    -2.0971 H       
  70 H70            6.8522   -11.6273    -1.9062 H       
  71 H71            5.3172   -11.6125    -2.8348 H       
@<TRIPOS>BOND
   1    1    2 1
   2    1    9 ar
   3    1   10 ar
   4    2    3 1
   5    2    6 1
   6    3    4 2
   7    4    5 1
   8    4    8 1
   9    5    6 2
  10    6    7 1
  11    7   36 1
  12    7   37 1
  13    8   20 1
  14    8   38 1
  15    9   13 ar
  16   10   11 ar
  17   11   12 ar
  18   11   14 1
  19   12   13 ar
  20   12   19 1
  21   13   39 1
  22   14   15 1
  23   14   40 1
  24   14   41 1
  25   15   16 1
  26   15   42 1
  27   15   43 1
  28   16   17 1
  29   16   44 1
  30   16   45 1
  31   17   18 1
  32   17   46 1
  33   17   47 1
  34   18   19 1
  35   18   48 1
  36   18   49 1
  37   19   50 1
  38   19   51 1
  39   20   21 ar
  40   20   25 ar
  41   21   22 ar
  42   21   52 1
  43   22   23 ar
  44   22   53 1
  45   23   24 ar
  46   23   26 1
  47   24   25 ar
  48   24   54 1
  49   25   55 1
  50   26   27 1
  51   27   28 1
  52   27   56 1
  53   27   57 1
  54   28   29 1
  55   28   30 1
  56   28   31 1
  57   29   32 1
  58   29   33 1
  59   30   58 1
  60   30   59 1
  61   30   60 1
  62   31   61 1
  63   31   62 1
  64   31   63 1
  65   32   35 1
  66   32   64 1
  67   32   65 1
  68   33   34 1
  69   33   66 1
  70   33   67 1
  71   34   35 1
  72   34   68 1
  73   34   69 1
  74   35   70 1
  75   35   71 1

#	End of record

