#	Name: ASD01140035
#	Creating user name:	WinNT
#	Creation time:	15. 06. 2019 18:59

#	Modifying user name:	WinNT
#	Modification time:	15. 06. 2019 18:59

#	Program:	/corina/corina34_cracker 3.40 0067  02.08.2006

@<TRIPOS>MOLECULE
ASD01140035
  32   34    0    0    0
SMALL
NO_CHARGES


@<TRIPOS>ATOM
   1 C1            -0.0188     1.5315     0.0105 C.3     
   2 C2             0.0021    -0.0041     0.0020 C.3     
   3 C3             0.7740    -0.4487     1.2317 C.2     
   4 O4             0.4222    -1.4003     1.8965 O.2     
   5 C5             1.9731     0.3361     1.5749 C.ar    
   6 C6             2.8839    -0.1313     2.5242 C.ar    
   7 C7             3.9943     0.6251     2.8322 C.ar    
   8 C8             4.2047     1.8426     2.2036 C.ar    
   9 C9             3.3122     2.3130     1.2616 C.ar    
  10 C10            2.1888     1.5661     0.9332 C.ar    
  11 O11            1.3213     2.0228     0.0003 O.3     
  12 C12           -0.7468     2.0312    -1.2107 C.ar    
  13 C13           -2.0637     2.4394    -1.1115 C.ar    
  14 C14           -2.7316     2.8978    -2.2317 C.ar    
  15 C15           -2.0823     2.9483    -3.4510 C.ar    
  16 C16           -0.7650     2.5409    -3.5501 C.ar    
  17 C17           -0.0959     2.0867    -2.4290 C.ar    
  18 C18            4.9822     0.1274     3.8557 C.3     
  19 H19           -0.5283     1.8834     0.9075 H       
  20 H20           -1.0167    -0.3894     0.0437 H       
  21 H21            0.4995    -0.3637    -0.8987 H       
  22 H22            2.7197    -1.0798     3.0139 H       
  23 H23            5.0761     2.4295     2.4538 H       
  24 H24            3.4878     3.2634     0.7796 H       
  25 H25           -2.5710     2.4000    -0.1589 H       
  26 H26           -3.7607     3.2160    -2.1543 H       
  27 H27           -2.6043     3.3057    -4.3263 H       
  28 H28           -0.2579     2.5801    -4.5028 H       
  29 H29            0.9344     1.7719    -2.5056 H       
  30 H30            5.7497    -0.4676     3.3605 H       
  31 H31            5.4472     0.9773     4.3551 H       
  32 H32            4.4642    -0.4877     4.5916 H       
@<TRIPOS>BOND
   1    1    2 1
   2    1   11 1
   3    1   12 1
   4    1   19 1
   5    2    3 1
   6    2   20 1
   7    2   21 1
   8    3    4 2
   9    3    5 1
  10    5    6 ar
  11    5   10 ar
  12    6    7 ar
  13    6   22 1
  14    7    8 ar
  15    7   18 1
  16    8    9 ar
  17    8   23 1
  18    9   10 ar
  19    9   24 1
  20   10   11 1
  21   12   13 ar
  22   12   17 ar
  23   13   14 ar
  24   13   25 1
  25   14   15 ar
  26   14   26 1
  27   15   16 ar
  28   15   27 1
  29   16   17 ar
  30   16   28 1
  31   17   29 1
  32   18   30 1
  33   18   31 1
  34   18   32 1

#	End of record

