#	Name: ASD08178034
#	Creating user name:	WinNT
#	Creation time:	15. 06. 2019 21:18

#	Modifying user name:	WinNT
#	Modification time:	15. 06. 2019 21:18

#	Program:	/corina/corina34_cracker 3.40 0067  02.08.2006

@<TRIPOS>MOLECULE
ASD08178034
  69   72    0    0    0
SMALL
NO_CHARGES


@<TRIPOS>ATOM
   1 C1            -0.0184     1.5028     0.0103 C.2     
   2 C2             0.0021    -0.0041     0.0020 C.3     
   3 C3            -0.0048    -0.5063    -1.4432 C.3     
   4 C4             0.0160    -2.0361    -1.4516 C.3     
   5 C5             0.0091    -2.5383    -2.8968 C.3     
   6 C6             0.0299    -4.0681    -2.9052 C.3     
   7 C7             0.0231    -4.5628    -4.3287 C.2     
   8 S8            -1.4058    -4.9237    -5.2980 S.3     
   9 C9            -0.3862    -5.3594    -6.6038 C.2     
  10 N10            0.8501    -5.2100    -6.2345 N.2     
  11 N11            1.0654    -4.7939    -5.0621 N.2     
  12 N12           -0.8116    -5.8004    -7.8523 N.am    
  13 C13            0.0934    -6.1140    -8.8006 C.2     
  14 O14            1.2787    -6.0115    -8.5651 O.2     
  15 C15           -0.3676    -6.5919   -10.1534 C.3     
  16 C16            0.8312    -6.8727   -11.0223 C.ar    
  17 C17            1.0014    -6.1842   -12.2088 C.ar    
  18 C18            1.7637    -7.8148   -10.6300 C.ar    
  19 C19            2.8634    -8.0724   -11.4270 C.ar    
  20 C20            3.0304    -7.3883   -12.6165 C.ar    
  21 C21            2.1011    -6.4418   -13.0058 C.ar    
  22 S22            1.3918     2.5625     0.0025 S.3     
  23 N23           -1.0746     2.2524     0.0187 N.2     
  24 N24           -0.8817     3.5001     0.0243 N.2     
  25 C25            0.3474     3.9203     0.0191 C.2     
  26 N26            0.7489     5.2518     0.0242 N.am    
  27 C27           -0.1741     6.2339     0.0349 C.2     
  28 O28           -1.3547     5.9565     0.0402 O.2     
  29 C29            0.2610     7.6767     0.0404 C.3     
  30 C30           -0.9543     8.5678     0.0523 C.ar    
  31 C31           -1.1636     9.4649    -0.9783 C.ar    
  32 C32           -1.8626     8.4841     1.0910 C.ar    
  33 C33           -2.9773     9.3014     1.1019 C.ar    
  34 C34           -3.1835    10.2029     0.0744 C.ar    
  35 C35           -2.2784    10.2823    -0.9674 C.ar    
  36 C36            1.1059     7.9499     1.2864 C.3     
  37 O37            2.3147     7.1908     1.2180 O.3     
  38 C38           -1.1896    -7.8718    -9.9893 C.3     
  39 O39           -2.3856    -7.5801    -9.2637 O.3     
  40 H40            0.9018    -0.3580     0.5054 H       
  41 H41           -0.8780    -0.3822     0.5223 H       
  42 H42           -0.9045    -0.1523    -1.9466 H       
  43 H43            0.8752    -0.1281    -1.9634 H       
  44 H44            0.9157    -2.3900    -0.9482 H       
  45 H45           -0.8641    -2.4143    -0.9314 H       
  46 H46           -0.8906    -2.1844    -3.4002 H       
  47 H47            0.8891    -2.1601    -3.4171 H       
  48 H48            0.9296    -4.4221    -2.4019 H       
  49 H49           -0.8502    -4.4463    -2.3850 H       
  50 H50           -1.7596    -5.8824    -8.0406 H       
  51 H51           -0.9825    -5.8225   -10.6204 H       
  52 H52            0.2751    -5.4452   -12.5133 H       
  53 H53            1.6332    -8.3494    -9.7007 H       
  54 H54            3.5922    -8.8080   -11.1202 H       
  55 H55            3.8898    -7.5893   -13.2390 H       
  56 H56            2.2316    -5.9073   -13.9351 H       
  57 H57            1.6932     5.4737     0.0200 H       
  58 H58            0.8527     7.8812    -0.8518 H       
  59 H59           -0.4561     9.5275    -1.7919 H       
  60 H60           -1.7015     7.7798     1.8938 H       
  61 H61           -3.6874     9.2355     1.9130 H       
  62 H62           -4.0547    10.8412     0.0827 H       
  63 H63           -2.4395    10.9866    -1.7702 H       
  64 H64            1.3462     9.0119     1.3368 H       
  65 H65            0.5456     7.6615     2.1757 H       
  66 H66            2.9006     7.3151     1.9772 H       
  67 H67           -1.4479    -8.2663   -10.9720 H       
  68 H68           -0.6046    -8.6118    -9.4431 H       
  69 H69           -2.9568    -8.3474    -9.1221 H       
@<TRIPOS>BOND
   1    1    2 1
   2    1   22 1
   3    1   23 2
   4    2    3 1
   5    2   40 1
   6    2   41 1
   7    3    4 1
   8    3   42 1
   9    3   43 1
  10    4    5 1
  11    4   44 1
  12    4   45 1
  13    5    6 1
  14    5   46 1
  15    5   47 1
  16    6    7 1
  17    6   48 1
  18    6   49 1
  19    7    8 1
  20    7   11 2
  21    8    9 1
  22    9   10 2
  23    9   12 1
  24   10   11 1
  25   12   13 am
  26   12   50 1
  27   13   14 2
  28   13   15 1
  29   15   16 1
  30   15   38 1
  31   15   51 1
  32   16   17 ar
  33   16   18 ar
  34   17   21 ar
  35   17   52 1
  36   18   19 ar
  37   18   53 1
  38   19   20 ar
  39   19   54 1
  40   20   21 ar
  41   20   55 1
  42   21   56 1
  43   22   25 1
  44   23   24 1
  45   24   25 2
  46   25   26 1
  47   26   27 am
  48   26   57 1
  49   27   28 2
  50   27   29 1
  51   29   30 1
  52   29   36 1
  53   29   58 1
  54   30   31 ar
  55   30   32 ar
  56   31   35 ar
  57   31   59 1
  58   32   33 ar
  59   32   60 1
  60   33   34 ar
  61   33   61 1
  62   34   35 ar
  63   34   62 1
  64   35   63 1
  65   36   37 1
  66   36   64 1
  67   36   65 1
  68   37   66 1
  69   38   39 1
  70   38   67 1
  71   38   68 1
  72   39   69 1

#	End of record

