#	Name: ASD01913383
#	Creating user name:	WinNT
#	Creation time:	15. 06. 2019 20:01

#	Modifying user name:	WinNT
#	Modification time:	15. 06. 2019 20:01

#	Program:	/corina/corina34_cracker 3.40 0067  02.08.2006

@<TRIPOS>MOLECULE
ASD01913383
  38   40    0    0    0
SMALL
NO_CHARGES


@<TRIPOS>ATOM
   1 C1            -0.1002    -0.7292    -2.1555 C.ar    
   2 C2            -0.5351    -0.0395    -1.0283 C.ar    
   3 C3            -0.4991     1.3478    -1.0316 C.ar    
   4 N4            -0.0604     2.0066    -2.0856 N.ar    
   5 C5             0.3587     1.3832    -3.1695 C.ar    
   6 C6             0.3535     0.0029    -3.2411 C.ar    
   7 C7            -1.0048    -2.0724     0.0081 C.ar    
   8 C8             0.1707    -2.7877     0.1931 C.ar    
   9 C9             0.1596    -4.1697     0.1467 C.ar    
  10 C10           -1.0200    -4.8471    -0.0838 C.ar    
  11 C11           -2.2072    -4.1366    -0.2711 C.ar    
  12 C12           -2.1947    -2.7425    -0.2240 C.ar    
  13 C13           -3.4728    -4.8591    -0.5188 C.2     
  14 N14           -3.4821    -6.2060    -0.5642 N.am    
  15 C15           -4.6889    -6.8904    -0.6918 C.ar    
  16 O16           -4.5052    -4.2383    -0.6816 O.2     
  17 O17           -0.9890    -0.7146     0.0603 O.3     
  18 C18           -4.7041    -8.2787    -0.6214 C.ar    
  19 C19           -5.9098    -8.9460    -0.7493 C.ar    
  20 C20           -7.0630    -8.1985    -0.9440 C.ar    
  21 C21           -6.9741    -6.8215    -1.0039 C.ar    
  22 N22           -5.8114    -6.2124    -0.8737 N.ar    
  23 C23           -8.2224    -6.0041    -1.2156 C.3     
  24 H24           -0.1117    -1.8088    -2.1822 H       
  25 H25           -0.8344     1.8932    -0.1619 H       
  26 H26            0.7109     1.9590    -4.0126 H       
  27 H27            0.6986    -0.4992    -4.1328 H       
  28 H28            1.0971    -2.2628     0.3736 H       
  29 H29            1.0773    -4.7205     0.2910 H       
  30 H30           -1.0249    -5.9265    -0.1198 H       
  31 H31           -3.1099    -2.1873    -0.3678 H       
  32 H32           -2.6486    -6.6989    -0.5081 H       
  33 H33           -3.7874    -8.8291    -0.4692 H       
  34 H34           -5.9524   -10.0240    -0.6990 H       
  35 H35           -8.0198    -8.6885    -1.0479 H       
  36 H36           -8.6610    -5.7539    -0.2496 H       
  37 H37           -7.9703    -5.0873    -1.7486 H       
  38 H38           -8.9387    -6.5799    -1.8017 H       
@<TRIPOS>BOND
   1    1    2 ar
   2    1    6 ar
   3    1   24 1
   4    2    3 ar
   5    2   17 1
   6    3    4 ar
   7    3   25 1
   8    4    5 ar
   9    5    6 ar
  10    5   26 1
  11    6   27 1
  12    7    8 ar
  13    7   12 ar
  14    7   17 1
  15    8    9 ar
  16    8   28 1
  17    9   10 ar
  18    9   29 1
  19   10   11 ar
  20   10   30 1
  21   11   12 ar
  22   11   13 1
  23   12   31 1
  24   13   14 am
  25   13   16 2
  26   14   15 1
  27   14   32 1
  28   15   18 ar
  29   15   22 ar
  30   18   19 ar
  31   18   33 1
  32   19   20 ar
  33   19   34 1
  34   20   21 ar
  35   20   35 1
  36   21   22 ar
  37   21   23 1
  38   23   36 1
  39   23   37 1
  40   23   38 1

#	End of record

