#	Name: ASD01815975
#	Creating user name:	WinNT
#	Creation time:	15. 06. 2019 19:34

#	Modifying user name:	WinNT
#	Modification time:	15. 06. 2019 19:34

#	Program:	/corina/corina34_cracker 3.40 0067  02.08.2006

@<TRIPOS>MOLECULE
ASD01815975
  52   56    0    0    0
SMALL
NO_CHARGES


@<TRIPOS>ATOM
   1 C1            -0.0167     1.3813     0.0096 C.ar    
   2 C2             0.0021    -0.0041     0.0020 C.ar    
   3 C3             1.1984    -0.6909    -0.0131 C.ar    
   4 C4             2.4015     0.0059    -0.0209 C.ar    
   5 C5             2.3790     1.4106    -0.0132 C.ar    
   6 C6             1.1663     2.0916     0.0022 C.ar    
   7 N7             3.6053    -0.6772    -0.0356 N.pl3   
   8 C8             4.7970    -0.0586    -0.0433 C.2     
   9 C9             4.9000     1.3103    -0.0373 C.2     
  10 C10            3.6670     2.1301    -0.0217 C.2     
  11 C11            5.9971     2.2729    -0.0432 C.2     
  12 N12            5.4245     3.4960    -0.0323 N.am    
  13 N13            4.0323     3.3799    -0.0195 N.2     
  14 C14            6.1264     4.7082    -0.0333 C.ar    
  15 O15            7.1914     2.0229    -0.0548 O.2     
  16 C16            3.5779    -2.1419    -0.0427 C.3     
  17 C17            3.5548    -2.6446    -1.4876 C.3     
  18 C18            3.6520    -4.1727    -1.4994 C.3     
  19 C19            3.5672    -4.6732    -2.9431 C.3     
  20 C20            2.2008    -2.7764    -3.5812 C.3     
  21 C21            2.2448    -2.2192    -2.1565 C.3     
  22 C22            6.5546     5.2634    -1.2317 C.ar    
  23 C23            7.2466     6.4588    -1.2297 C.ar    
  24 C24            7.5142     7.1036    -0.0359 C.ar    
  25 C25            7.0900     6.5550     1.1603 C.ar    
  26 C26            6.3912     5.3614     1.1656 C.ar    
  27 F27            5.9763     4.8253     2.3342 F       
  28 N28            2.2963    -4.2411    -3.5384 N.3     
  29 C29            1.1540    -4.8224    -2.8205 C.3     
  30 H30           -0.9602     1.9068     0.0170 H       
  31 H31           -0.9289    -0.5516     0.0083 H       
  32 H32            1.2004    -1.7709    -0.0186 H       
  33 H33            1.1506     3.1715     0.0077 H       
  34 H34            5.6983    -0.6536    -0.0540 H       
  35 H35            4.4657    -2.5244     0.4609 H       
  36 H36            2.6861    -2.4912     0.4778 H       
  37 H37            4.3980    -2.2218    -2.0339 H       
  38 H38            4.6022    -4.4803    -1.0628 H       
  39 H39            2.8310    -4.5940    -0.9193 H       
  40 H40            4.3963    -4.2625    -3.5192 H       
  41 H41            3.6217    -5.7618    -2.9538 H       
  42 H42            1.2629    -2.4872    -4.0554 H       
  43 H43            3.0364    -2.3745    -4.1543 H       
  44 H44            1.4017    -2.6098    -1.5868 H       
  45 H45            2.1897    -1.1311    -2.1895 H       
  46 H46            6.3471     4.7607    -2.1648 H       
  47 H47            7.5796     6.8905    -2.1620 H       
  48 H48            8.0561     8.0378    -0.0379 H       
  49 H49            7.3009     7.0609     2.0909 H       
  50 H50            1.1787    -4.5024    -1.7788 H       
  51 H51            0.2256    -4.4861    -3.2820 H       
  52 H52            1.2103    -5.9099    -2.8680 H       
@<TRIPOS>BOND
   1    1    2 ar
   2    1    6 ar
   3    1   30 1
   4    2    3 ar
   5    2   31 1
   6    3    4 ar
   7    3   32 1
   8    4    5 ar
   9    4    7 1
  10    5    6 ar
  11    5   10 1
  12    6   33 1
  13    7    8 1
  14    7   16 1
  15    8    9 2
  16    8   34 1
  17    9   10 1
  18    9   11 1
  19   10   13 2
  20   11   12 am
  21   11   15 2
  22   12   13 1
  23   12   14 1
  24   14   22 ar
  25   14   26 ar
  26   16   17 1
  27   16   35 1
  28   16   36 1
  29   17   18 1
  30   17   21 1
  31   17   37 1
  32   18   19 1
  33   18   38 1
  34   18   39 1
  35   19   28 1
  36   19   40 1
  37   19   41 1
  38   20   21 1
  39   20   28 1
  40   20   42 1
  41   20   43 1
  42   21   44 1
  43   21   45 1
  44   22   23 ar
  45   22   46 1
  46   23   24 ar
  47   23   47 1
  48   24   25 ar
  49   24   48 1
  50   25   26 ar
  51   25   49 1
  52   26   27 1
  53   28   29 1
  54   29   50 1
  55   29   51 1
  56   29   52 1

#	End of record

