#	Name: ASD02448173
#	Creating user name:	WinNT
#	Creation time:	15. 06. 2019 20:21

#	Modifying user name:	WinNT
#	Modification time:	15. 06. 2019 20:21

#	Program:	/corina/corina34_cracker 3.40 0067  02.08.2006

@<TRIPOS>MOLECULE
ASD02448173
  74   80    0    0    0
SMALL
NO_CHARGES


@<TRIPOS>ATOM
   1 C1            -0.2897     1.4759     0.1700 C.ar    
   2 C2            -0.1753     0.1011     0.0973 C.ar    
   3 C3             1.0802    -0.4925     0.0687 C.ar    
   4 C4             2.2199     0.2962     0.1131 C.ar    
   5 C5             2.1022     1.6774     0.1861 C.ar    
   6 C6             0.8436     2.2651     0.2145 C.ar    
   7 N7             3.2477     2.4754     0.2316 N.am    
   8 C8             3.3882     3.8770    -0.1840 C.3     
   9 C9             4.7836     4.3693     0.0273 C.2     
  10 N10            5.6264     3.4637     0.5436 N.am    
  11 S11            4.7677     2.0569     0.7771 S.o2    
  12 O12            5.1267     5.4997    -0.2473 O.2     
  13 O13            4.6754     1.8500     2.1799 O.2     
  14 O14            5.2822     1.0955    -0.1341 O.2     
  15 N15            1.1950    -1.8879    -0.0046 N.pl3   
  16 C16            1.8789    -2.5975    -0.9554 C.2     
  17 C17            0.6532    -2.7875     0.8581 C.2     
  18 N18            0.9775    -3.9898     0.4721 N.2     
  19 C19            1.7327    -3.9113    -0.6424 C.2     
  20 C20            2.3025    -5.0568    -1.3937 C.ar    
  21 C21            2.0732    -6.3623    -0.9593 C.ar    
  22 C22            3.0636    -4.8324    -2.5389 C.ar    
  23 C23            3.5916    -5.9013    -3.2344 C.ar    
  24 C24            3.3659    -7.1950    -2.7967 C.ar    
  25 C25            2.6060    -7.4245    -1.6625 C.ar    
  26 Cl26           4.0327    -8.5346    -3.6769 Cl      
  27 Cl27           1.1204    -6.6510     0.4629 Cl      
  28 C28            0.6916    -2.4028     3.2884 C.ar    
  29 C29            1.3721    -1.2404     3.6039 C.ar    
  30 C30            2.1725    -1.1894     4.7268 C.ar    
  31 C31            2.2944    -2.3121     5.5442 C.ar    
  32 C32            1.6059    -3.4806     5.2215 C.ar    
  33 C33            0.8088    -3.5200     4.0957 C.ar    
  34 C34            3.1532    -2.2638     6.7517 C.ar    
  35 C35           -0.1854    -2.4503     2.0639 C.3     
  36 N36            3.8087    -1.1500     7.0575 N.ar    
  37 C37            3.2697    -3.3891     7.5738 C.ar    
  38 C38            4.0820    -3.2973     8.6899 C.ar    
  39 C39            4.7373    -2.0830     8.9275 C.ar    
  40 N40            4.5625    -1.0631     8.0928 N.ar    
  41 C41            5.6155    -1.9338    10.1052 C.2     
  42 C42            6.1266    -0.7501    10.3485 C.2     
  43 C43            7.0404    -0.4553    11.5021 C.3     
  44 C44            6.9424    -1.5668    12.5491 C.3     
  45 C45            7.0974    -2.9180    11.8403 C.3     
  46 C46            5.8663    -3.1436    10.9574 C.3     
  47 H47           -1.2671     1.9351     0.1876 H       
  48 H48           -1.0631    -0.5130     0.0630 H       
  49 H49            3.1971    -0.1632     0.0914 H       
  50 H50            0.7509     3.3396     0.2713 H       
  51 H51            3.1355     3.9631    -1.2408 H       
  52 H52            2.7009     4.4922     0.3967 H       
  53 H53            6.5645     3.6036     0.7469 H       
  54 H54            2.4279    -2.1914    -1.7921 H       
  55 H55            3.2400    -3.8237    -2.8820 H       
  56 H56            4.1817    -5.7280    -4.1222 H       
  57 H57            2.4331    -8.4357    -1.3248 H       
  58 H58            1.2769    -0.3712     2.9699 H       
  59 H59            2.7038    -0.2816     4.9718 H       
  60 H60            1.6969    -4.3535     5.8509 H       
  61 H61            0.2749    -4.4247     3.8447 H       
  62 H62           -0.6581    -1.4790     1.9176 H       
  63 H63           -0.9538    -3.2120     2.1966 H       
  64 H64            2.7411    -4.3025     7.3443 H       
  65 H65            4.2065    -4.1367     9.3579 H       
  66 H66            5.8753     0.0595     9.6793 H       
  67 H67            8.0669    -0.3878    11.1418 H       
  68 H68            6.7555     0.4942    11.9553 H       
  69 H69            7.7364    -1.4467    13.2862 H       
  70 H70            5.9712    -1.5210    13.0419 H       
  71 H71            7.9969    -2.9076    11.2248 H       
  72 H72            7.1663    -3.7144    12.5812 H       
  73 H73            4.9986    -3.3339    11.5891 H       
  74 H74            6.0372    -4.0055    10.3124 H       
@<TRIPOS>BOND
   1    1    2 ar
   2    1    6 ar
   3    1   47 1
   4    2    3 ar
   5    2   48 1
   6    3    4 ar
   7    3   15 1
   8    4    5 ar
   9    4   49 1
  10    5    6 ar
  11    5    7 1
  12    6   50 1
  13    7    8 1
  14    7   11 am
  15    8    9 1
  16    8   51 1
  17    8   52 1
  18    9   10 am
  19    9   12 2
  20   10   11 am
  21   10   53 1
  22   11   13 2
  23   11   14 2
  24   15   16 1
  25   15   17 1
  26   16   19 2
  27   16   54 1
  28   17   18 2
  29   17   35 1
  30   18   19 1
  31   19   20 1
  32   20   21 ar
  33   20   22 ar
  34   21   27 1
  35   21   25 ar
  36   22   23 ar
  37   22   55 1
  38   23   24 ar
  39   23   56 1
  40   24   25 ar
  41   24   26 1
  42   25   57 1
  43   28   29 ar
  44   28   33 ar
  45   28   35 1
  46   29   30 ar
  47   29   58 1
  48   30   31 ar
  49   30   59 1
  50   31   32 ar
  51   31   34 1
  52   32   33 ar
  53   32   60 1
  54   33   61 1
  55   34   36 ar
  56   34   37 ar
  57   35   62 1
  58   35   63 1
  59   36   40 ar
  60   37   38 ar
  61   37   64 1
  62   38   39 ar
  63   38   65 1
  64   39   40 ar
  65   39   41 1
  66   41   42 2
  67   41   46 1
  68   42   43 1
  69   42   66 1
  70   43   44 1
  71   43   67 1
  72   43   68 1
  73   44   45 1
  74   44   69 1
  75   44   70 1
  76   45   46 1
  77   45   71 1
  78   45   72 1
  79   46   73 1
  80   46   74 1

#	End of record

