#	Name: ASD01410828
#	Creating user name:	WinNT
#	Creation time:	15. 06. 2019 19:18

#	Modifying user name:	WinNT
#	Modification time:	15. 06. 2019 19:18

#	Program:	/corina/corina34_cracker 3.40 0067  02.08.2006

@<TRIPOS>MOLECULE
ASD01410828
 113  119    0    0    0
SMALL
NO_CHARGES


@<TRIPOS>ATOM
   1 C1             1.8942     0.8816     2.9337 C.3     
   2 C2             1.1251    -0.4354     2.6783 C.3     
   3 N3             1.1384    -1.1293     3.9826 N.am    
   4 C4             1.2455    -0.1208     5.0441 C.3     
   5 C5             1.3959     1.2539     4.3568 C.3     
   6 O6             3.3061     0.6615     2.9252 O.3     
   7 C7             0.0005    -0.1359     5.8930 C.2     
   8 O8            -0.8959    -0.9131     5.6411 O.2     
   9 N9            -0.1169     0.7142     6.9323 N.am    
  10 C10            1.9029    -1.3039     1.6833 C.3     
  11 C11            1.2074    -3.3920     2.9630 C.3     
  12 C12            1.0989    -2.4632     4.1395 C.2     
  13 O13            0.9740    -2.9271     5.2531 O.2     
  14 C14           -0.0365    -4.2814     2.9107 C.3     
  15 C15           -1.1785    -3.5218     2.2327 C.3     
  16 C16            0.2763    -5.5495     2.1139 C.3     
  17 C17           -0.4512    -4.6623     4.3333 C.3     
  18 C18           -1.3758     0.7905     7.6776 C.3     
  19 C19           -2.5884     1.1715     6.8679 C.2     
  20 N20           -2.4513     1.5246     5.5745 N.am    
  21 O21           -3.6876     1.1604     7.3803 O.2     
  22 S22           -3.7653     2.0541     4.7170 S.o2    
  23 C23           -4.2370     3.6081     5.5253 C.3     
  24 C24           -1.5766    -0.1977     8.8282 C.3     
  25 C25           -1.3109     1.2801     9.1257 C.3     
  26 C26           -5.5095     4.3016     5.0348 C.3     
  27 C27           -5.4967     3.5987     6.3937 C.3     
  28 O28           -3.2560     2.3043     3.4142 O.2     
  29 O29           -4.7532     1.0570     4.9384 O.2     
  30 C30           -2.9719    -0.7152     9.0655 C.2     
  31 C31           -3.2156    -2.0002     8.9906 C.2     
  32 C32            4.0865     1.6873     2.5036 C.ar    
  33 C33            5.4973     1.5798     2.5174 C.ar    
  34 C34            3.5299     2.8530     2.0477 C.ar    
  35 C35            4.3576     3.8981     1.6177 C.ar    
  36 N36            5.6746     3.7903     1.6391 N.ar    
  37 C37            6.2752     2.6748     2.0686 C.ar    
  38 C38            3.7424     5.1530     1.1271 C.2     
  39 C39            4.4669     6.2048     0.6898 C.2     
  40 C40            7.6767     2.5723     2.0871 C.ar    
  41 C41            8.2680     1.4118     2.5349 C.ar    
  42 C42            7.4898     0.3359     2.9707 C.ar    
  43 C43            6.1306     0.4122     2.9668 C.ar    
  44 Cl44           8.6566     3.9002     1.5484 Cl      
  45 O45            9.6229     1.3117     2.5527 O.3     
  46 C46           10.1765     0.0829     3.0279 C.3     
  47 N47            2.4309     5.3412     1.0731 N.2     
  48 C48            2.0185     6.4759     0.6267 C.2     
  49 S49            3.3423     7.4711     0.2047 S.3     
  50 C50            0.5704     6.8707     0.4924 C.3     
  51 C51            0.2982     8.1101     1.3473 C.3     
  52 C52            0.2609     7.1838    -0.9729 C.3     
  53 N53            1.3178    -2.6506     1.7087 N.am    
  54 O54            0.8560    -2.4854    -0.5724 O.3     
  55 C55            0.3702    -3.1508    -1.7680 C.3     
  56 C56           -1.0719    -3.6111    -1.5453 C.3     
  57 C57            0.4187    -2.1783    -2.9482 C.3     
  58 C58            1.2519    -4.3641    -2.0704 C.3     
  59 C59            0.8783    -3.2084     0.5632 C.2     
  60 O60            0.5021    -4.3638     0.5554 O.2     
  61 H61            1.6147     1.6454     2.2079 H       
  62 H62            0.1068    -0.2415     2.3412 H       
  63 H63            2.1204    -0.3242     5.6617 H       
  64 H64            2.1340     1.8654     4.8757 H       
  65 H65            0.4354     1.7668     4.3069 H       
  66 H66            0.6322     1.2754     7.1867 H       
  67 H67            1.8177    -0.8835     0.6812 H       
  68 H68            2.9516    -1.3516     1.9763 H       
  69 H69            2.0899    -4.0201     3.0844 H       
  70 H70           -0.8830    -3.2504     1.2192 H       
  71 H71           -2.0646    -4.1554     2.1955 H       
  72 H72           -1.4014    -2.6183     2.8004 H       
  73 H73            1.3495    -5.6092     1.9326 H       
  74 H74           -0.0456    -6.4233     2.6804 H       
  75 H75           -0.2520    -5.5194     1.1610 H       
  76 H76           -0.6741    -3.7589     4.9010 H       
  77 H77           -1.3374    -5.2959     4.2961 H       
  78 H78            0.3623    -5.2035     4.8164 H       
  79 H79           -1.5830     1.4685     5.1458 H       
  80 H80           -3.4097     4.2417     5.8449 H       
  81 H81           -0.7720    -0.9047     9.0307 H       
  82 H82           -0.3315     1.5451     9.5240 H       
  83 H83           -2.1453     1.8775     9.4929 H       
  84 H84           -5.5196     5.3916     5.0321 H       
  85 H85           -6.0633     3.8242     4.2264 H       
  86 H86           -6.0419     2.6587     6.4793 H       
  87 H87           -5.4982     4.2262     7.2850 H       
  88 H88           -3.7711    -0.0267     9.2973 H       
  89 H89           -2.4164    -2.6887     8.7587 H       
  90 H90           -4.2155    -2.3710     9.1606 H       
  91 H91            2.4562     2.9658     2.0196 H       
  92 H92            5.5446     6.2603     0.6456 H       
  93 H93            7.9725    -0.5657     3.3178 H       
  94 H94            5.5409    -0.4264     3.3066 H       
  95 H95           11.2645     0.1358     2.9898 H       
  96 H96            9.8568    -0.0859     4.0562 H       
  97 H97            9.8303    -0.7383     2.4003 H       
  98 H98           -0.0627     6.0502     0.8302 H       
  99 H99           -0.7492     8.3956     1.2501 H       
 100 H100           0.5187     7.8870     2.3912 H       
 101 H101           0.9313     8.9306     1.0095 H       
 102 H102           0.4548     6.3008    -1.5819 H       
 103 H103          -0.7865     7.4694    -1.0700 H       
 104 H104           0.8940     8.0043    -1.3106 H       
 105 H105          -1.7000    -2.7467    -1.3299 H       
 106 H106          -1.4365    -4.1106    -2.4429 H       
 107 H107          -1.1064    -4.3039    -0.7045 H       
 108 H108           1.4460    -1.8504    -3.1069 H       
 109 H109           0.0540    -2.6778    -3.8458 H       
 110 H110          -0.2095    -1.3140    -2.7328 H       
 111 H111           1.2173    -5.0569    -1.2296 H       
 112 H112           0.8872    -4.8636    -2.9679 H       
 113 H113           2.2792    -4.0362    -2.2290 H       
@<TRIPOS>BOND
   1    1    2 1
   2    1    6 1
   3    1    5 1
   4    1   61 1
   5    2    3 1
   6    2   10 1
   7    2   62 1
   8    3    4 1
   9    3   12 am
  10    4    5 1
  11    4    7 1
  12    4   63 1
  13    5   64 1
  14    5   65 1
  15    6   32 1
  16    7    8 2
  17    7    9 am
  18    9   18 1
  19    9   66 1
  20   10   53 1
  21   10   67 1
  22   10   68 1
  23   11   12 1
  24   11   14 1
  25   11   53 1
  26   11   69 1
  27   12   13 2
  28   14   15 1
  29   14   16 1
  30   14   17 1
  31   15   70 1
  32   15   71 1
  33   15   72 1
  34   16   73 1
  35   16   74 1
  36   16   75 1
  37   17   76 1
  38   17   77 1
  39   17   78 1
  40   18   19 1
  41   18   24 1
  42   18   25 1
  43   19   20 am
  44   19   21 2
  45   20   22 am
  46   20   79 1
  47   22   23 1
  48   22   28 2
  49   22   29 2
  50   23   26 1
  51   23   27 1
  52   23   80 1
  53   24   25 1
  54   24   30 1
  55   24   81 1
  56   25   82 1
  57   25   83 1
  58   26   27 1
  59   26   84 1
  60   26   85 1
  61   27   86 1
  62   27   87 1
  63   30   31 2
  64   30   88 1
  65   31   89 1
  66   31   90 1
  67   32   33 ar
  68   32   34 ar
  69   33   37 ar
  70   33   43 ar
  71   34   35 ar
  72   34   91 1
  73   35   36 ar
  74   35   38 1
  75   36   37 ar
  76   37   40 ar
  77   38   47 1
  78   38   39 2
  79   39   49 1
  80   39   92 1
  81   40   41 ar
  82   40   44 1
  83   41   42 ar
  84   41   45 1
  85   42   43 ar
  86   42   93 1
  87   43   94 1
  88   45   46 1
  89   46   95 1
  90   46   96 1
  91   46   97 1
  92   47   48 2
  93   48   49 1
  94   48   50 1
  95   50   51 1
  96   50   52 1
  97   50   98 1
  98   51   99 1
  99   51  100 1
 100   51  101 1
 101   52  102 1
 102   52  103 1
 103   52  104 1
 104   53   59 am
 105   54   55 1
 106   54   59 1
 107   55   56 1
 108   55   57 1
 109   55   58 1
 110   56  105 1
 111   56  106 1
 112   56  107 1
 113   57  108 1
 114   57  109 1
 115   57  110 1
 116   58  111 1
 117   58  112 1
 118   58  113 1
 119   59   60 2

#	End of record

