#	Name: ASD01912845
#	Creating user name:	WinNT
#	Creation time:	15. 06. 2019 20:00

#	Modifying user name:	WinNT
#	Modification time:	15. 06. 2019 20:00

#	Program:	/corina/corina34_cracker 3.40 0067  02.08.2006

@<TRIPOS>MOLECULE
ASD01912845
  46   49    0    0    0
SMALL
NO_CHARGES


@<TRIPOS>ATOM
   1 C1            -0.0174     1.3668    -0.0525 C.2     
   2 N2             0.0015    -0.0041    -0.0424 N.pl3   
   3 C3            -1.2025    -0.6920    -0.0107 C.2     
   4 C4            -2.3631    -0.0496     0.0100 C.2     
   5 N5            -2.4362     1.3308     0.0007 N.am    
   6 C6            -1.3026     2.0668    -0.0234 C.2     
   7 C7             1.3003     1.7835    -0.0854 C.2     
   8 C8             2.0539     0.6109    -0.0935 C.2     
   9 N9             1.2236    -0.4046    -0.0670 N.2     
  10 O10           -1.3497     3.2838    -0.0316 O.2     
  11 C11           -3.6805     1.9647     0.0228 C.ar    
  12 C12            3.5580     0.5247    -0.1273 C.3     
  13 O13            4.1102     1.8425    -0.1502 O.3     
  14 C14            5.4651     1.9432    -0.1821 C.ar    
  15 C15            6.0687     3.1922    -0.2057 C.ar    
  16 C16            7.4461     3.2919    -0.2381 C.ar    
  17 C17            8.2232     2.1482    -0.2470 C.ar    
  18 C18            7.6241     0.9023    -0.2239 C.ar    
  19 C19            6.2472     0.7973    -0.1853 C.ar    
  20 N20           -3.7454     3.2821    -0.0865 N.ar    
  21 C21           -4.8365     1.2043     0.1537 C.ar    
  22 C22           -6.0643     1.8414     0.1741 C.ar    
  23 C23           -6.0931     3.2302     0.0619 C.ar    
  24 C24           -4.8977     3.9230    -0.0711 C.ar    
  25 N25           -7.3117     3.9169     0.0772 N.pl3   
  26 C26           -8.5727     3.1712     0.0826 C.3     
  27 C27           -7.3270     5.3818     0.0879 C.3     
  28 H28           -1.1950    -1.7719    -0.0030 H       
  29 H29           -3.2783    -0.6224     0.0345 H       
  30 H30            1.6670     2.7992    -0.1015 H       
  31 H31            3.9118    -0.0020     0.7590 H       
  32 H32            3.8710    -0.0160    -1.0204 H       
  33 H33            5.4621     4.0857    -0.1991 H       
  34 H34            7.9165     4.2639    -0.2568 H       
  35 H35            9.2999     2.2283    -0.2723 H       
  36 H36            8.2332     0.0105    -0.2316 H       
  37 H37            5.7797    -0.1761    -0.1672 H       
  38 H38           -4.7770     0.1292     0.2380 H       
  39 H39           -6.9789     1.2758     0.2743 H       
  40 H40           -4.9112     4.9993    -0.1587 H       
  41 H41           -8.8767     2.9788     1.1115 H       
  42 H42           -9.3428     3.7560    -0.4205 H       
  43 H43           -8.4369     2.2240    -0.4393 H       
  44 H44           -6.3068     5.7551     0.1774 H       
  45 H45           -7.7676     5.7474    -0.8396 H       
  46 H46           -7.9178     5.7328     0.9339 H       
@<TRIPOS>BOND
   1    1    2 1
   2    1    7 2
   3    1    6 1
   4    2    3 1
   5    2    9 1
   6    3    4 2
   7    3   28 1
   8    4    5 1
   9    4   29 1
  10    5    6 am
  11    5   11 1
  12    6   10 2
  13    7    8 1
  14    7   30 1
  15    8    9 2
  16    8   12 1
  17   11   20 ar
  18   11   21 ar
  19   12   13 1
  20   12   31 1
  21   12   32 1
  22   13   14 1
  23   14   15 ar
  24   14   19 ar
  25   15   16 ar
  26   15   33 1
  27   16   17 ar
  28   16   34 1
  29   17   18 ar
  30   17   35 1
  31   18   19 ar
  32   18   36 1
  33   19   37 1
  34   20   24 ar
  35   21   22 ar
  36   21   38 1
  37   22   23 ar
  38   22   39 1
  39   23   24 ar
  40   23   25 1
  41   24   40 1
  42   25   26 1
  43   25   27 1
  44   26   41 1
  45   26   42 1
  46   26   43 1
  47   27   44 1
  48   27   45 1
  49   27   46 1

#	End of record

