#	Name: ASD04880704
#	Creating user name:	WinNT
#	Creation time:	15. 06. 2019 20:53

#	Modifying user name:	WinNT
#	Modification time:	15. 06. 2019 20:53

#	Program:	/corina/corina34_cracker 3.40 0067  02.08.2006

@<TRIPOS>MOLECULE
ASD04880704
  83   88    0    0    0
SMALL
NO_CHARGES


@<TRIPOS>ATOM
   1 C1            -0.0988     1.4598    -0.0172 C.ar    
   2 C2            -1.0901     1.7993     0.8855 C.ar    
   3 C3            -0.8926     2.8389     1.7754 C.ar    
   4 C4             0.2963     3.5420     1.7655 C.ar    
   5 C5             1.2939     3.2037     0.8604 C.ar    
   6 C6             1.0921     2.1585    -0.0324 C.ar    
   7 C7             0.5105     4.6753     2.7355 C.3     
   8 N8             2.4971     3.9128     0.8474 N.3     
   9 C9             3.6253     3.0425     1.2069 C.3     
  10 C10            2.7206     4.5471    -0.4593 C.3     
  11 C11            4.0054     5.3771    -0.4075 C.3     
  12 N12            5.1336     4.5068    -0.0480 N.3     
  13 C13            4.9102     3.8725     1.2587 C.3     
  14 C14            6.3332     5.2138    -0.0609 C.ar    
  15 C15            7.2948     4.9318    -1.0245 C.ar    
  16 C16            8.4828     5.6283    -1.0407 C.ar    
  17 C17            8.7248     6.6217    -0.0878 C.ar    
  18 C18            7.7595     6.9075     0.8818 C.ar    
  19 C19            6.5665     6.2098     0.8913 C.ar    
  20 N20            5.5938     6.4972     1.8582 N.am    
  21 C21            5.9662     6.8511     3.1042 C.2     
  22 C22            4.9458     7.0573     4.1477 C.2     
  23 O23            7.1442     7.0003     3.3676 O.2     
  24 C24            3.0320     7.1891     5.1380 C.2     
  25 O25            3.9743     7.4948     6.0412 O.3     
  26 C26            5.1724     7.4197     5.4399 C.2     
  27 N27            3.5996     6.9270     3.9989 N.2     
  28 C28            1.5488     7.1549     5.4022 C.3     
  29 C29            1.0439     6.1847     6.4720 C.3     
  30 C30            1.0586     7.6892     6.7494 C.3     
  31 C31            7.0368     3.8613    -2.0533 C.3     
  32 F32            8.0889     3.8373    -2.9752 F       
  33 F33            6.9440     2.6177    -1.4192 F       
  34 F34            5.8381     4.1350    -2.7207 F       
  35 C35            9.9977     7.3674    -0.1051 C.2     
  36 N36           10.2302     8.3251     0.8142 N.am    
  37 O37           10.8371     7.1178    -0.9487 O.2     
  38 C38           11.4942     9.0656     0.7971 C.3     
  39 C39           11.5029    10.0861     1.9370 C.3     
  40 C40           12.8230    10.8594     1.9191 C.3     
  41 N41           12.8314    11.8365     3.0105 N.am    
  42 C42           12.1388    13.7051     4.3442 C.3     
  43 C43           12.3369    13.2133     2.8932 C.3     
  44 C44           13.2878    11.5855     4.2497 C.2     
  45 C45           13.1355    12.8142     5.1191 C.3     
  46 O46           13.7532    10.5277     4.6176 O.2     
  47 H47           -0.2546     0.6443    -0.7080 H       
  48 H48           -2.0208     1.2514     0.8951 H       
  49 H49           -1.6689     3.1018     2.4787 H       
  50 H50            1.8659     1.8926    -0.7373 H       
  51 H51            0.9575     4.2897     3.6518 H       
  52 H52            1.1762     5.4143     2.2896 H       
  53 H53           -0.4472     5.1417     2.9667 H       
  54 H54            3.4422     2.5945     2.1836 H       
  55 H55            3.7304     2.2560     0.4596 H       
  56 H56            2.8153     3.7777    -1.2255 H       
  57 H57            1.8778     5.1960    -0.6974 H       
  58 H58            4.1886     5.8251    -1.3841 H       
  59 H59            3.9003     6.1636     0.3398 H       
  60 H60            4.8154     4.6419     2.0250 H       
  61 H61            5.7530     3.2236     1.4968 H       
  62 H62            9.2281     5.4064    -1.7902 H       
  63 H63            7.9439     7.6743     1.6196 H       
  64 H64            4.6525     6.4414     1.6307 H       
  65 H65            6.1331     7.6100     5.8951 H       
  66 H66            0.9125     7.3211     4.5329 H       
  67 H67            0.0753     5.7128     6.3067 H       
  68 H68            1.7846     5.5711     6.9848 H       
  69 H69            1.8090     8.0655     7.4448 H       
  70 H70            0.0997     8.2072     6.7667 H       
  71 H71            9.5606     8.5242     1.4872 H       
  72 H72           12.3241     8.3706     0.9251 H       
  73 H73           11.5984     9.5844    -0.1559 H       
  74 H74           10.6730    10.7810     1.8089 H       
  75 H75           11.3987     9.5673     2.8899 H       
  76 H76           13.6530    10.1644     2.0471 H       
  77 H77           12.9273    11.3782     0.9661 H       
  78 H78           12.4007    14.7590     4.4381 H       
  79 H79           11.1173    13.5271     4.6804 H       
  80 H80           13.0709    13.8354     2.3810 H       
  81 H81           11.3882    13.2289     2.3568 H       
  82 H82           14.0930    13.3225     5.2327 H       
  83 H83           12.7280    12.5440     6.0933 H       
@<TRIPOS>BOND
   1    1    2 ar
   2    1    6 ar
   3    1   47 1
   4    2    3 ar
   5    2   48 1
   6    3    4 ar
   7    3   49 1
   8    4    5 ar
   9    4    7 1
  10    5    6 ar
  11    5    8 1
  12    6   50 1
  13    7   51 1
  14    7   52 1
  15    7   53 1
  16    8   10 1
  17    8    9 1
  18    9   13 1
  19    9   54 1
  20    9   55 1
  21   10   11 1
  22   10   56 1
  23   10   57 1
  24   11   12 1
  25   11   58 1
  26   11   59 1
  27   12   13 1
  28   12   14 1
  29   13   60 1
  30   13   61 1
  31   14   15 ar
  32   14   19 ar
  33   15   16 ar
  34   15   31 1
  35   16   17 ar
  36   16   62 1
  37   17   18 ar
  38   17   35 1
  39   18   19 ar
  40   18   63 1
  41   19   20 1
  42   20   21 am
  43   20   64 1
  44   21   22 1
  45   21   23 2
  46   22   27 1
  47   22   26 2
  48   24   25 1
  49   24   27 2
  50   24   28 1
  51   25   26 1
  52   26   65 1
  53   28   29 1
  54   28   30 1
  55   28   66 1
  56   29   30 1
  57   29   67 1
  58   29   68 1
  59   30   69 1
  60   30   70 1
  61   31   32 1
  62   31   33 1
  63   31   34 1
  64   35   36 am
  65   35   37 2
  66   36   38 1
  67   36   71 1
  68   38   39 1
  69   38   72 1
  70   38   73 1
  71   39   40 1
  72   39   74 1
  73   39   75 1
  74   40   41 1
  75   40   76 1
  76   40   77 1
  77   41   44 am
  78   41   43 1
  79   42   43 1
  80   42   45 1
  81   42   78 1
  82   42   79 1
  83   43   80 1
  84   43   81 1
  85   44   45 1
  86   44   46 2
  87   45   82 1
  88   45   83 1

#	End of record

