#	Name: ASD06170157
#	Creating user name:	WinNT
#	Creation time:	15. 06. 2019 21:05

#	Modifying user name:	WinNT
#	Modification time:	15. 06. 2019 21:05

#	Program:	/corina/corina34_cracker 3.40 0067  02.08.2006

@<TRIPOS>MOLECULE
ASD06170157
  76   80    0    0    0
SMALL
NO_CHARGES


@<TRIPOS>ATOM
   1 N1            -1.7722    -1.5447    -1.3275 N.am    
   2 C2            -0.8794    -1.7711    -0.1809 C.3     
   3 C3            -0.8652    -3.2702     0.1365 C.3     
   4 N4            -0.5195    -4.0213    -1.0778 N.3     
   5 C5            -1.5322    -3.8358    -2.1256 C.3     
   6 C6            -1.5737    -2.3598    -2.5356 C.3     
   7 C7            -2.7499    -0.6188    -1.2707 C.2     
   8 O8            -2.9601    -0.0195    -0.2341 O.2     
   9 N9            -3.4946    -0.3572    -2.3632 N.am    
  10 C10           -0.3268    -5.4465    -0.7783 C.3     
  11 C11           -6.1432     1.8521    -3.3037 C.ar    
  12 N12           -5.1204     1.0249    -3.3775 N.ar    
  13 C13           -4.5737     0.5157    -2.2764 C.ar    
  14 C14           -5.0981     0.8690    -1.0368 C.ar    
  15 C15           -6.1772     1.7444    -1.0033 C.ar    
  16 N16           -6.6670     2.2100    -2.1491 N.ar    
  17 O17           -6.7229     2.1178     0.1797 O.3     
  18 C18           -7.8414     2.8912     0.1512 C.ar    
  19 C19           -9.0932     2.2983     0.0383 C.ar    
  20 C20          -10.2296     3.0846     0.0093 C.ar    
  21 C21          -10.1193     4.4665     0.0931 C.ar    
  22 C22           -8.8679     5.0571     0.2058 C.ar    
  23 C23           -7.7328     4.2704     0.2404 C.ar    
  24 C24          -12.4321     4.7888     0.5533 C.2     
  25 O25          -12.4619     3.7043     1.1045 O.2     
  26 N26          -11.2699     5.2641     0.0634 N.am    
  27 N27          -15.7764     6.2216     0.5574 N.pl3   
  28 N28          -15.0955     7.2468    -0.1058 N.am    
  29 C29          -13.7960     6.9000    -0.2132 C.2     
  30 C30          -13.6619     5.5793     0.4219 C.2     
  31 C31          -14.9207     5.2300     0.8704 C.2     
  32 C32          -17.2075     6.2279     0.8708 C.3     
  33 C33          -17.9794     5.5384    -0.2560 C.3     
  34 C34          -19.4740     5.5450     0.0713 C.3     
  35 C35          -15.6658     8.4328    -0.5794 C.ar    
  36 C36          -16.4389     9.2190     0.2652 C.ar    
  37 C37          -17.0003    10.3898    -0.2054 C.ar    
  38 C38          -16.7934    10.7796    -1.5159 C.ar    
  39 C39          -16.0246     9.9989    -2.3595 C.ar    
  40 C40          -15.4557     8.8298    -1.8936 C.ar    
  41 O41          -12.9092     7.5513    -0.7329 O.2     
  42 C42          -15.2764     3.9545     1.5899 C.3     
  43 F43           -9.1993     0.9540    -0.0436 F       
  44 H44            0.1286    -1.4402    -0.4308 H       
  45 H45           -1.2459    -1.2174     0.6835 H       
  46 H46           -0.1254    -3.4710     0.9113 H       
  47 H47           -1.8509    -3.5774     0.4858 H       
  48 H48           -1.2761    -4.4467    -2.9912 H       
  49 H49           -2.5087    -4.1351    -1.7447 H       
  50 H50           -2.3993    -2.1953    -3.2280 H       
  51 H51           -0.6325    -2.0855    -3.0118 H       
  52 H52           -3.2778    -0.7777    -3.2100 H       
  53 H53           -1.2466    -5.8580    -0.3628 H       
  54 H54           -0.0718    -5.9790    -1.6945 H       
  55 H55            0.4811    -5.5598    -0.0553 H       
  56 H56           -6.5614     2.2517    -4.2157 H       
  57 H57           -4.6776     0.4730    -0.1242 H       
  58 H58          -11.2028     2.6246    -0.0788 H       
  59 H59           -8.7821     6.1317     0.2710 H       
  60 H60           -6.7600     4.7303     0.3329 H       
  61 H61          -11.2306     6.1586    -0.3098 H       
  62 H62          -17.3769     5.6948     1.8063 H       
  63 H63          -17.5530     7.2568     0.9712 H       
  64 H64          -17.8100     6.0715    -1.1916 H       
  65 H65          -17.6340     4.5095    -0.3565 H       
  66 H66          -19.8194     6.5739     0.1717 H       
  67 H67          -20.0239     5.0538    -0.7315 H       
  68 H68          -19.6434     5.0119     1.0068 H       
  69 H69          -16.6011     8.9149     1.2887 H       
  70 H70          -17.6018    11.0014     0.4508 H       
  71 H71          -17.2335    11.6956    -1.8815 H       
  72 H72          -15.8653    10.3059    -3.3826 H       
  73 H73          -14.8517     8.2228    -2.5517 H       
  74 H74          -15.5581     3.1934     0.8622 H       
  75 H75          -14.4162     3.6086     2.1630 H       
  76 H76          -16.1122     4.1390     2.2647 H       
@<TRIPOS>BOND
   1    1    2 1
   2    1    6 1
   3    1    7 am
   4    2    3 1
   5    2   44 1
   6    2   45 1
   7    3    4 1
   8    3   46 1
   9    3   47 1
  10    4    5 1
  11    4   10 1
  12    5    6 1
  13    5   48 1
  14    5   49 1
  15    6   50 1
  16    6   51 1
  17    7    8 2
  18    7    9 am
  19    9   13 1
  20    9   52 1
  21   10   53 1
  22   10   54 1
  23   10   55 1
  24   11   12 ar
  25   11   16 ar
  26   11   56 1
  27   12   13 ar
  28   13   14 ar
  29   14   15 ar
  30   14   57 1
  31   15   16 ar
  32   15   17 1
  33   17   18 1
  34   18   19 ar
  35   18   23 ar
  36   19   20 ar
  37   19   43 1
  38   20   21 ar
  39   20   58 1
  40   21   22 ar
  41   21   26 1
  42   22   23 ar
  43   22   59 1
  44   23   60 1
  45   24   25 2
  46   24   26 am
  47   24   30 1
  48   26   61 1
  49   27   28 1
  50   27   31 1
  51   27   32 1
  52   28   29 am
  53   28   35 1
  54   29   30 1
  55   29   41 2
  56   30   31 2
  57   31   42 1
  58   32   33 1
  59   32   62 1
  60   32   63 1
  61   33   34 1
  62   33   64 1
  63   33   65 1
  64   34   66 1
  65   34   67 1
  66   34   68 1
  67   35   36 ar
  68   35   40 ar
  69   36   37 ar
  70   36   69 1
  71   37   38 ar
  72   37   70 1
  73   38   39 ar
  74   38   71 1
  75   39   40 ar
  76   39   72 1
  77   40   73 1
  78   42   74 1
  79   42   75 1
  80   42   76 1

#	End of record

