#	Name: ASD03331612
#	Creating user name:	WinNT
#	Creation time:	15. 06. 2019 20:39

#	Modifying user name:	WinNT
#	Modification time:	15. 06. 2019 20:39

#	Program:	/corina/corina34_cracker 3.40 0067  02.08.2006

@<TRIPOS>MOLECULE
ASD03331612
  67   70    0    0    0
SMALL
NO_CHARGES


@<TRIPOS>ATOM
   1 C1            -0.1489     0.9175     2.1078 C.ar    
   2 C2            -0.0379    -0.5068     1.7243 C.2     
   3 N3            -0.9501    -1.4781     1.9963 N.pl3   
   4 C4            -0.4831    -2.6390     1.4786 C.2     
   5 C5             0.7127    -2.3706     0.8947 C.2     
   6 N6             0.9571    -1.0492     1.0571 N.2     
   7 C7             1.5830    -3.3395     0.2055 C.2     
   8 N8             2.7504    -2.9335    -0.3319 N.am    
   9 C9            -2.2301    -1.3458     2.7200 C.3     
  10 C10           -2.1099    -2.1915     3.9982 C.3     
  11 C11           -2.3266    -3.6546     3.6983 C.3     
  12 N12           -1.2660    -4.3387     2.9896 N.3     
  13 C13           -1.2051    -3.9712     1.5619 C.3     
  14 C14           -0.8317     1.2782     3.2698 C.ar    
  15 O15            1.2479    -4.5057     0.1216 O.2     
  16 C16            3.6157    -3.8969    -1.0171 C.3     
  17 C17           -1.3763    -5.7943     3.1543 C.3     
  18 C18           -2.5527    -4.3807     5.0260 C.3     
  19 C19            3.1652    -4.0422    -2.4720 C.3     
  20 C20            5.0407    -3.4080    -0.9789 C.2     
  21 C21            3.2107    -2.6759    -3.1590 C.3     
  22 C22            4.0989    -5.0107    -3.2007 C.3     
  23 C23            1.7354    -4.5854    -2.5114 C.3     
  24 C24           -0.9323     2.6097     3.6231 C.ar    
  25 C25           -0.3557     3.5867     2.8237 C.ar    
  26 C26            0.3226     3.2318     1.6691 C.ar    
  27 C27            0.4340     1.9042     1.3116 C.ar    
  28 F28           -0.4566     4.8880     3.1724 F       
  29 F29           -1.5930     2.9614     4.7478 F       
  30 O30            5.2748    -2.2381    -0.7612 O.2     
  31 N31            6.0549    -4.2709    -1.1868 N.am    
  32 C32            7.4414    -3.8189    -1.0472 C.3     
  33 C33            8.4979    -4.8735    -0.7115 C.3     
  34 C34            8.4414    -4.2670    -2.1150 C.3     
  35 H35            3.0177    -2.0035    -0.2650 H       
  36 H36           -2.4048    -0.3017     2.9795 H       
  37 H37           -3.0472    -1.7187     2.1024 H       
  38 H38           -1.1161    -2.0565     4.4250 H       
  39 H39           -2.8568    -1.8591     4.7193 H       
  40 H40           -3.2389    -3.7460     3.1089 H       
  41 H41           -2.2133    -3.8736     1.1595 H       
  42 H42           -0.6531    -4.7290     1.0058 H       
  43 H43           -1.2809     0.5179     3.8915 H       
  44 H44            3.5497    -4.8637    -0.5180 H       
  45 H45           -2.3741    -6.1187     2.8591 H       
  46 H46           -0.6335    -6.2882     2.5279 H       
  47 H47           -1.2031    -6.0560     4.1982 H       
  48 H48           -3.3472    -3.8826     5.5817 H       
  49 H49           -2.8388    -5.4142     4.8307 H       
  50 H50           -1.6334    -4.3625     5.6112 H       
  51 H51            4.2293    -2.2889    -3.1309 H       
  52 H52            2.8897    -2.7794    -4.1955 H       
  53 H53            2.5455    -1.9859    -2.6398 H       
  54 H54            4.0371    -5.9945    -2.7353 H       
  55 H55            3.8015    -5.0844    -4.2468 H       
  56 H56            5.1233    -4.6434    -3.1392 H       
  57 H57            1.0702    -3.8955    -1.9922 H       
  58 H58            1.4144    -4.6890    -3.5479 H       
  59 H59            1.7030    -5.5589    -2.0220 H       
  60 H60            0.7689     3.9958     1.0499 H       
  61 H61            0.9632     1.6295     0.4111 H       
  62 H62            5.8668    -5.1912    -1.4288 H       
  63 H63            7.5709    -2.8237    -0.6220 H       
  64 H64            9.3226    -4.5720    -0.0657 H       
  65 H65            8.1613    -5.9036    -0.5945 H       
  66 H66            8.0677    -4.8980    -2.9213 H       
  67 H67            9.2290    -3.5664    -2.3926 H       
@<TRIPOS>BOND
   1    1    2 1
   2    1   14 ar
   3    1   27 ar
   4    2    3 1
   5    2    6 2
   6    3    4 1
   7    3    9 1
   8    4    5 2
   9    4   13 1
  10    5    6 1
  11    5    7 1
  12    7    8 am
  13    7   15 2
  14    8   16 1
  15    8   35 1
  16    9   10 1
  17    9   36 1
  18    9   37 1
  19   10   11 1
  20   10   38 1
  21   10   39 1
  22   11   12 1
  23   11   18 1
  24   11   40 1
  25   12   13 1
  26   12   17 1
  27   13   41 1
  28   13   42 1
  29   14   24 ar
  30   14   43 1
  31   16   19 1
  32   16   20 1
  33   16   44 1
  34   17   45 1
  35   17   46 1
  36   17   47 1
  37   18   48 1
  38   18   49 1
  39   18   50 1
  40   19   21 1
  41   19   22 1
  42   19   23 1
  43   20   30 2
  44   20   31 am
  45   21   51 1
  46   21   52 1
  47   21   53 1
  48   22   54 1
  49   22   55 1
  50   22   56 1
  51   23   57 1
  52   23   58 1
  53   23   59 1
  54   24   25 ar
  55   24   29 1
  56   25   26 ar
  57   25   28 1
  58   26   27 ar
  59   26   60 1
  60   27   61 1
  61   31   32 1
  62   31   62 1
  63   32   33 1
  64   32   34 1
  65   32   63 1
  66   33   34 1
  67   33   64 1
  68   33   65 1
  69   34   66 1
  70   34   67 1

#	End of record

