#	Name: ASD03092978
#	Creating user name:	WinNT
#	Creation time:	15. 06. 2019 20:33

#	Modifying user name:	WinNT
#	Modification time:	15. 06. 2019 20:33

#	Program:	/corina/corina34_cracker 3.40 0067  02.08.2006

@<TRIPOS>MOLECULE
ASD03092978
  49   53    0    0    0
SMALL
NO_CHARGES


@<TRIPOS>ATOM
   1 N1            -0.0204     1.6518     0.0111 N.am    
   2 S2             0.0021    -0.0041     0.0020 S.o2    
   3 O3             1.3604    -0.3860    -0.1664 O.2     
   4 O4            -0.7920    -0.4222     1.1038 O.2     
   5 C5            -0.8462    -0.5292    -1.4503 C.ar    
   6 C6            -2.2107    -0.7471    -1.4131 C.ar    
   7 C7            -2.8762    -1.1591    -2.5525 C.ar    
   8 C8            -2.1772    -1.3528    -3.7293 C.ar    
   9 C9            -0.8128    -1.1340    -3.7668 C.ar    
  10 C10           -0.1480    -0.7179    -2.6284 C.ar    
  11 C11           -2.9025    -1.8029    -4.9712 C.3     
  12 H12           -3.9613    -1.5475    -5.0160 H       
  13 C13           -2.1191    -1.8039    -6.2865 C.3     
  14 H14           -1.0792    -1.4790    -6.2533 H       
  15 C15           -2.8704    -1.4519    -7.5445 C.2     
  16 N16           -2.3514    -1.2507    -8.7301 N.2     
  17 C17           -3.3958    -0.9652    -9.5401 C.2     
  18 N18           -4.4770    -1.0093    -8.8060 N.2     
  19 O19           -4.1923    -1.2919    -7.6613 O.3     
  20 C20           -3.3276    -0.6586   -10.9907 C.ar    
  21 C21           -2.0986    -0.6524   -11.6470 C.ar    
  22 C22           -2.0410    -0.3666   -12.9961 C.ar    
  23 C23           -3.2005    -0.0863   -13.6963 C.ar    
  24 C24           -4.4232    -0.0911   -13.0497 C.ar    
  25 C25           -4.4930    -0.3816   -11.7022 C.ar    
  26 C26           -2.4686    -3.1228    -5.6014 C.3     
  27 C27           -1.3757    -3.9861    -4.9473 C.3     
  28 C28           -2.0800    -5.3387    -4.6699 C.3     
  29 C29           -2.9921    -5.5119    -5.9102 C.3     
  30 C30           -3.4973    -4.0846    -6.2118 C.3     
  31 H31            0.8130     2.1481     0.0058 H       
  32 H32           -0.8669     2.1253     0.0177 H       
  33 H33           -2.7569    -0.5958    -0.4937 H       
  34 H34           -3.9422    -1.3300    -2.5233 H       
  35 H35           -0.2666    -1.2856    -4.6860 H       
  36 H36            0.9174    -0.5433    -2.6586 H       
  37 H37           -1.1927    -0.8705   -11.1010 H       
  38 H38           -1.0889    -0.3615   -13.5058 H       
  39 H39           -3.1508     0.1375   -14.7517 H       
  40 H40           -5.3254     0.1288   -13.6012 H       
  41 H41           -5.4488    -0.3899   -11.1994 H       
  42 H42           -0.5383    -4.1248    -5.6311 H       
  43 H43           -1.0381    -3.5332    -4.0152 H       
  44 H44           -1.3521    -6.1478    -4.6100 H       
  45 H45           -2.6746    -5.2845    -3.7580 H       
  46 H46           -2.4202    -5.9001    -6.7530 H       
  47 H47           -3.8285    -6.1716    -5.6794 H       
  48 H48           -4.4736    -3.9285    -5.7530 H       
  49 H49           -3.5606    -3.9300    -7.2890 H       
@<TRIPOS>BOND
   1    1    2 am
   2    1   31 1
   3    1   32 1
   4    2    3 2
   5    2    4 2
   6    2    5 1
   7    5   10 ar
   8    5    6 ar
   9    6    7 ar
  10    6   33 1
  11    7    8 ar
  12    7   34 1
  13    8    9 ar
  14    8   11 1
  15    9   10 ar
  16    9   35 1
  17   10   36 1
  18   11   12 1
  19   11   26 1
  20   11   13 1
  21   13   14 1
  22   13   15 1
  23   13   26 1
  24   15   19 1
  25   15   16 2
  26   16   17 1
  27   17   18 2
  28   17   20 1
  29   18   19 1
  30   20   25 ar
  31   20   21 ar
  32   21   22 ar
  33   21   37 1
  34   22   23 ar
  35   22   38 1
  36   23   24 ar
  37   23   39 1
  38   24   25 ar
  39   24   40 1
  40   25   41 1
  41   26   30 1
  42   26   27 1
  43   27   28 1
  44   27   42 1
  45   27   43 1
  46   28   29 1
  47   28   44 1
  48   28   45 1
  49   29   30 1
  50   29   46 1
  51   29   47 1
  52   30   48 1
  53   30   49 1

#	End of record

