#	Name: ASD03090640
#	Creating user name:	WinNT
#	Creation time:	15. 06. 2019 20:29

#	Modifying user name:	WinNT
#	Modification time:	15. 06. 2019 20:29

#	Program:	/corina/corina34_cracker 3.40 0067  02.08.2006

@<TRIPOS>MOLECULE
ASD03090640
  37   38    0    0    0
SMALL
NO_CHARGES


@<TRIPOS>ATOM
   1 N1            -0.0162     1.3436     0.0094 N.am    
   2 C2             0.0191     0.1476     0.6299 C.2     
   3 O3             1.0725    -0.2855     1.0556 O.2     
   4 N4            -1.1131    -0.5682     0.7784 N.am    
   5 O5            -1.7385    -3.6100     2.2174 O.3     
   6 N6            -2.0859    -2.6081     1.6365 N.2     
   7 C7            -1.0765    -1.8059     1.4204 C.2     
   8 C8             0.0649    -2.4478     1.9703 C.2     
   9 C9            -0.4216    -3.6064     2.4702 C.2     
  10 C10            0.3630    -4.6831     3.1745 C.3     
  11 C11            1.1455     2.1272    -0.0706 C.ar    
  12 C12            1.0457     3.5108    -0.1991 C.ar    
  13 C13            2.1936     4.2813    -0.2774 C.ar    
  14 C14            3.4400     3.6744    -0.2277 C.ar    
  15 C15            3.5375     2.2970    -0.0998 C.ar    
  16 C16            2.3934     1.5257    -0.0162 C.ar    
  17 N17            4.8689     1.6521    -0.0471 N.pl3   
  18 O18            4.9556     0.4424     0.0652 O.2     
  19 O19            5.8776     2.3312    -0.1160 O.2     
  20 O20            4.5673     4.4308    -0.3050 O.3     
  21 C21            4.3932     5.8431    -0.4362 C.3     
  22 O22           -0.1770     4.1037    -0.2480 O.3     
  23 C23           -0.2033     5.5263    -0.3805 C.3     
  24 H24           -0.8435     1.6609    -0.3853 H       
  25 H25           -1.9534    -0.2227     0.4387 H       
  26 H26            1.0849    -2.0931     1.9854 H       
  27 H27           -0.3076    -5.4935     3.4602 H       
  28 H28            1.1333    -5.0676     2.5060 H       
  29 H29            0.8308    -4.2671     4.0668 H       
  30 H30            2.1186     5.3540    -0.3773 H       
  31 H31            2.4717     0.4536     0.0879 H       
  32 H32            3.8338     6.0571    -1.3469 H       
  33 H33            3.8440     6.2230     0.4253 H       
  34 H34            5.3689     6.3263    -0.4870 H       
  35 H35           -1.2375     5.8697    -0.4072 H       
  36 H36            0.3083     5.9798     0.4684 H       
  37 H37            0.2991     5.8146    -1.3039 H       
@<TRIPOS>BOND
   1    1    2 am
   2    1   11 1
   3    1   24 1
   4    2    3 2
   5    2    4 am
   6    4    7 1
   7    4   25 1
   8    5    6 1
   9    5    9 1
  10    6    7 2
  11    7    8 1
  12    8    9 2
  13    8   26 1
  14    9   10 1
  15   10   27 1
  16   10   28 1
  17   10   29 1
  18   11   12 ar
  19   11   16 ar
  20   12   13 ar
  21   12   22 1
  22   13   14 ar
  23   13   30 1
  24   14   15 ar
  25   14   20 1
  26   15   16 ar
  27   15   17 1
  28   16   31 1
  29   17   18 2
  30   17   19 2
  31   20   21 1
  32   21   32 1
  33   21   33 1
  34   21   34 1
  35   22   23 1
  36   23   35 1
  37   23   36 1
  38   23   37 1

#	End of record

