#	Name: ASD02198614
#	Creating user name:	WinNT
#	Creation time:	15. 06. 2019 20:19

#	Modifying user name:	WinNT
#	Modification time:	15. 06. 2019 20:19

#	Program:	/corina/corina34_cracker 3.40 0067  02.08.2006

@<TRIPOS>MOLECULE
ASD02198614
  41   44    0    0    0
SMALL
NO_CHARGES


@<TRIPOS>ATOM
   1 C1             0.1455     1.6590    -0.1086 C.2     
   2 C2             0.1625     0.3191     0.1033 C.2     
   3 N3             1.3288    -0.3369     0.2990 N.pl3   
   4 N4             2.4717     0.2434     0.2984 N.2     
   5 C5             2.5979     1.5382     0.1049 C.2     
   6 C6             1.3854     2.3424    -0.1177 C.2     
   7 C7             1.2857    -1.7185     0.5132 C.ar    
   8 C8             2.4637    -2.4531     0.5578 C.ar    
   9 C9             2.4175    -3.8172     0.7695 C.ar    
  10 C10            1.2004    -4.4516     0.9370 C.ar    
  11 C11            0.0254    -3.7231     0.8932 C.ar    
  12 C12            0.0647    -2.3583     0.6877 C.ar    
  13 C13            3.9319     2.1737     0.1114 C.2     
  14 N14            5.0733     1.6666    -0.4363 N.pl3   
  15 N15            6.1035     2.5869    -0.2059 N.2     
  16 C16            5.6157     3.6081     0.4513 C.2     
  17 C17            4.2547     3.3922     0.6663 C.2     
  18 C18            5.1994     0.3875    -1.1393 C.3     
  19 C19            4.8408     0.5786    -2.6143 C.3     
  20 O20            1.4463     3.5487    -0.3029 O.2     
  21 C21            3.6951    -4.6151     0.8174 C.3     
  22 F22            4.1661    -4.6626     2.1339 F       
  23 F23            3.4502    -5.9152     0.3626 F       
  24 F24            4.6549    -4.0082     0.0003 F       
  25 C25            5.0323    -0.6177    -3.5487 C.3     
  26 C26            3.6227    -0.1773    -3.1489 C.3     
  27 H27           -0.7831     2.1863    -0.2697 H       
  28 H28           -0.7671    -0.2305     0.1163 H       
  29 H29            3.4147    -1.9583     0.4267 H       
  30 H30            1.1671    -5.5184     1.1020 H       
  31 H31           -0.9236    -4.2218     1.0241 H       
  32 H32           -0.8531    -1.7901     0.6536 H       
  33 H33            6.1737     4.4760     0.7705 H       
  34 H34            3.5775     4.0574     1.1813 H       
  35 H35            6.2253     0.0280    -1.0584 H       
  36 H36            4.5229    -0.3410    -0.6923 H       
  37 H37            5.0359     1.5710    -3.0208 H       
  38 H38            5.3531    -0.4123    -4.5700 H       
  39 H39            5.4139    -1.5409    -3.1126 H       
  40 H40            3.0768    -0.8107    -2.4497 H       
  41 H41            3.0161     0.3179    -3.9072 H       
@<TRIPOS>BOND
   1    1    2 2
   2    1    6 1
   3    1   27 1
   4    2    3 1
   5    2   28 1
   6    3    4 1
   7    3    7 1
   8    4    5 2
   9    5    6 1
  10    5   13 1
  11    6   20 2
  12    7    8 ar
  13    7   12 ar
  14    8    9 ar
  15    8   29 1
  16    9   10 ar
  17    9   21 1
  18   10   11 ar
  19   10   30 1
  20   11   12 ar
  21   11   31 1
  22   12   32 1
  23   13   14 1
  24   13   17 2
  25   14   15 1
  26   14   18 1
  27   15   16 2
  28   16   17 1
  29   16   33 1
  30   17   34 1
  31   18   19 1
  32   18   35 1
  33   18   36 1
  34   19   25 1
  35   19   26 1
  36   19   37 1
  37   21   22 1
  38   21   23 1
  39   21   24 1
  40   25   26 1
  41   25   38 1
  42   25   39 1
  43   26   40 1
  44   26   41 1

#	End of record

