#	Name: ASD00311472
#	Creating user name:	WinNT
#	Creation time:	15. 06. 2019 18:34

#	Modifying user name:	WinNT
#	Modification time:	15. 06. 2019 18:34

#	Program:	/corina/corina34_cracker 3.40 0067  02.08.2006

@<TRIPOS>MOLECULE
ASD00311472
  42   46    0    0    0
SMALL
NO_CHARGES


@<TRIPOS>ATOM
   1 C1            -0.0167     1.3781     0.0096 C.2     
   2 C2             0.0021    -0.0041     0.0020 C.2     
   3 C3             1.2582    -0.6767    -0.0140 C.2     
   4 C4             2.4321     0.0679    -0.0217 C.2     
   5 C5             2.3575     1.4765    -0.0134 C.2     
   6 N6             1.1646     2.0910     0.0022 N.am    
   7 C7            -1.3434    -0.5750     0.0123 C.2     
   8 C8            -2.3226     0.3261     0.0268 C.2     
   9 S9            -1.6794     1.9563     0.0358 S.3     
  10 O10            3.3819     2.1390    -0.0200 O.2     
  11 C11            5.8239    -1.1324    -1.1071 C.ar    
  12 C12            4.6081    -0.4837    -1.1341 C.ar    
  13 C13            3.7467    -0.6104    -0.0379 C.ar    
  14 C14            4.1640    -1.3964     1.0429 C.ar    
  15 C15            5.3968    -2.0101     0.9861 C.ar    
  16 N16            6.1788    -1.8643    -0.0674 N.ar    
  17 O17            1.3079    -2.0288    -0.0213 O.3     
  18 C18           -1.5960    -2.0347     0.0062 C.ar    
  19 C19           -2.4708    -2.5955     0.9374 C.ar    
  20 C20           -2.7057    -3.9527     0.9310 C.ar    
  21 C21           -2.0690    -4.7663    -0.0056 C.ar    
  22 C22           -1.1943    -4.2064    -0.9361 C.ar    
  23 C23           -0.9635    -2.8485    -0.9345 C.ar    
  24 O24           -3.0883    -8.2190     0.4846 O.3     
  25 C25           -3.1396    -6.9220     0.8220 C.2     
  26 C26           -2.3219    -6.2282    -0.0117 C.2     
  27 C27           -1.7412    -7.2234    -0.9202 C.2     
  28 C28           -2.2579    -8.4079    -0.5521 C.2     
  29 H29            1.1320     3.0605     0.0073 H       
  30 H30           -3.3752     0.0845     0.0354 H       
  31 H31            6.4934    -1.0445    -1.9500 H       
  32 H32            4.3245     0.1138    -1.9880 H       
  33 H33            3.5296    -1.5197     1.9082 H       
  34 H34            5.7276    -2.6184     1.8149 H       
  35 H35            2.2051    -2.3893    -0.0322 H       
  36 H36           -2.9634    -1.9656     1.6632 H       
  37 H37           -3.3828    -4.3869     1.6517 H       
  38 H38           -0.7008    -4.8370    -1.6609 H       
  39 H39           -0.2898    -2.4142    -1.6583 H       
  40 H40           -3.7311    -6.5006     1.6213 H       
  41 H41           -1.0413    -7.0409    -1.7221 H       
  42 H42           -2.0401    -9.3585    -1.0160 H       
@<TRIPOS>BOND
   1    1    2 2
   2    1    6 1
   3    1    9 1
   4    2    3 1
   5    2    7 1
   6    3    4 2
   7    3   17 1
   8    4    5 1
   9    4   13 1
  10    5    6 am
  11    5   10 2
  12    6   29 1
  13    7    8 2
  14    7   18 1
  15    8    9 1
  16    8   30 1
  17   11   12 ar
  18   11   16 ar
  19   11   31 1
  20   12   13 ar
  21   12   32 1
  22   13   14 ar
  23   14   15 ar
  24   14   33 1
  25   15   16 ar
  26   15   34 1
  27   17   35 1
  28   18   19 ar
  29   18   23 ar
  30   19   20 ar
  31   19   36 1
  32   20   21 ar
  33   20   37 1
  34   21   22 ar
  35   21   26 1
  36   22   23 ar
  37   22   38 1
  38   23   39 1
  39   24   25 1
  40   24   28 1
  41   25   26 2
  42   25   40 1
  43   26   27 1
  44   27   28 2
  45   27   41 1
  46   28   42 1

#	End of record

