#	Name: ASD01813768
#	Creating user name:	WinNT
#	Creation time:	15. 06. 2019 19:31

#	Modifying user name:	WinNT
#	Modification time:	15. 06. 2019 19:31

#	Program:	/corina/corina34_cracker 3.40 0067  02.08.2006

@<TRIPOS>MOLECULE
ASD01813768
  42   45    0    0    0
SMALL
NO_CHARGES


@<TRIPOS>ATOM
   1 C1             0.0961     1.4749     0.3447 C.ar    
   2 C2             0.0783     0.0877     0.3370 C.ar    
   3 C3             1.2490    -0.6310     0.2101 C.ar    
   4 C4             2.4664     0.0381     0.0879 C.ar    
   5 C5             2.4797     1.4428     0.0962 C.ar    
   6 C6             1.2876     2.1556     0.2253 C.ar    
   7 N7             3.6441    -0.6677    -0.0385 N.pl3   
   8 C8             4.8374    -0.0726    -0.1573 C.2     
   9 C9             4.9772     1.3008    -0.1619 C.2     
  10 C10            3.7738     2.1383    -0.0338 C.2     
  11 O11            3.8439     3.3549    -0.0326 O.2     
  12 C12            6.3054     1.9162    -0.2933 C.2     
  13 O13            6.4289     3.2586    -0.2965 O.3     
  14 O14            7.2925     1.2148    -0.3993 O.2     
  15 C15            3.5871    -2.1316    -0.0427 C.3     
  16 C16            3.4445    -2.6248    -1.4595 C.ar    
  17 C17            4.5576    -2.7727    -2.2733 C.ar    
  18 N18            4.3984    -3.2080    -3.5113 N.ar    
  19 C19            3.1914    -3.5019    -3.9766 C.ar    
  20 N20            2.1068    -3.3713    -3.2240 N.ar    
  21 C21            2.1981    -2.9458    -1.9756 C.ar    
  22 F22            1.2162    -1.9816     0.2047 F       
  23 C23            3.0512    -3.9868    -5.3700 C.2     
  24 C24            4.0976    -4.1798    -6.2948 C.2     
  25 N25            3.5764    -4.6149    -7.4105 N.2     
  26 N26            2.1899    -4.7165    -7.2451 N.pl3   
  27 C27            1.8851    -4.3343    -5.9910 C.2     
  28 C28            1.2352    -5.1672    -8.2609 C.3     
  29 H29           -0.8291     2.0237     0.4403 H       
  30 H30           -0.8619    -0.4351     0.4317 H       
  31 H31            1.2988     3.2355     0.2313 H       
  32 H32            5.7202    -0.6875    -0.2523 H       
  33 H33            7.3226     3.6170    -0.3853 H       
  34 H34            4.5034    -2.5321     0.3910 H       
  35 H35            2.7315    -2.4636     0.5454 H       
  36 H36            5.5428    -2.5348    -1.9001 H       
  37 H37            1.3116    -2.8415    -1.3677 H       
  38 H38            5.1466    -3.9990    -6.1127 H       
  39 H39            0.8969    -4.3015    -5.5566 H       
  40 H40            1.1080    -6.2471    -8.1861 H       
  41 H41            0.2753    -4.6763    -8.1005 H       
  42 H42            1.6120    -4.9134    -9.2517 H       
@<TRIPOS>BOND
   1    1    2 ar
   2    1    6 ar
   3    1   29 1
   4    2    3 ar
   5    2   30 1
   6    3   22 1
   7    3    4 ar
   8    4    5 ar
   9    4    7 1
  10    5    6 ar
  11    5   10 1
  12    6   31 1
  13    7    8 1
  14    7   15 1
  15    8    9 2
  16    8   32 1
  17    9   10 1
  18    9   12 1
  19   10   11 2
  20   12   13 1
  21   12   14 2
  22   13   33 1
  23   15   16 1
  24   15   34 1
  25   15   35 1
  26   16   17 ar
  27   16   21 ar
  28   17   18 ar
  29   17   36 1
  30   18   19 ar
  31   19   20 ar
  32   19   23 1
  33   20   21 ar
  34   21   37 1
  35   23   24 1
  36   23   27 2
  37   24   25 2
  38   24   38 1
  39   25   26 1
  40   26   27 1
  41   26   28 1
  42   27   39 1
  43   28   40 1
  44   28   41 1
  45   28   42 1

#	End of record

