#	Name: ASD01811591
#	Creating user name:	WinNT
#	Creation time:	15. 06. 2019 19:27

#	Modifying user name:	WinNT
#	Modification time:	15. 06. 2019 19:27

#	Program:	/corina/corina34_cracker 3.40 0067  02.08.2006

@<TRIPOS>MOLECULE
ASD01811591
  57   60    0    0    0
SMALL
NO_CHARGES


@<TRIPOS>ATOM
   1 C1            -0.4047     1.0382     0.8086 C.ar    
   2 C2            -0.2636    -0.0468    -0.0478 C.ar    
   3 C3            -1.3048    -0.4179    -0.8783 C.ar    
   4 C4            -2.4909     0.2867    -0.8623 C.ar    
   5 C5            -2.6428     1.3783    -0.0051 C.ar    
   6 C6            -1.5944     1.7492     0.8363 C.ar    
   7 C7             1.0288    -0.8215    -0.0717 C.3     
   8 C8            -3.9127     2.1355     0.0137 C.2     
   9 O9            -3.8956     3.3492     0.0788 O.2     
  10 N10           -5.0890     1.4801    -0.0412 N.am    
  11 C11           -6.3590     2.2111     0.0662 C.3     
  12 C12           -7.1971     1.5818     1.1835 C.3     
  13 C13           -7.3551     0.0834     0.9151 C.3     
  14 C14           -5.9778    -0.5837     0.9103 C.3     
  15 C15           -5.1259     0.0217    -0.2157 C.3     
  16 C16           -8.2077    -0.5328     1.9942 C.ar    
  17 C17           -8.7471    -1.7935     1.8098 C.ar    
  18 F18           -7.9687    -0.1052    -0.3280 F       
  19 C19           -8.4428     0.1625     3.1671 C.ar    
  20 C20           -9.2219    -0.3958     4.1592 C.ar    
  21 C21           -9.7738    -1.6655     3.9776 C.ar    
  22 C22           -9.5281    -2.3637     2.7936 C.ar    
  23 C23          -10.5835    -2.2513     5.0032 C.1     
  24 N24          -11.2259    -2.7160     5.8168 N.1     
  25 N25            0.6525     1.4098     1.6474 N.am    
  26 C26            0.4035     2.0876     2.7854 C.2     
  27 O27           -0.7436     2.2879     3.1351 O.2     
  28 N28            1.4261     2.5433     3.5358 N.am    
  29 C29            1.1555     3.2800     4.7729 C.3     
  30 C30            2.2995     3.2093     5.8019 C.3     
  31 O31            2.0637     4.6189     5.9922 O.3     
  32 C32            1.4787     4.7835     4.6848 C.3     
  33 H33           -1.1891    -1.2620    -1.5420 H       
  34 H34           -3.3017    -0.0058    -1.5131 H       
  35 H35           -1.7062     2.5925     1.5018 H       
  36 H36            0.9796    -1.6329     0.6545 H       
  37 H37            1.1864    -1.2347    -1.0680 H       
  38 H38            1.8553    -0.1573     0.1810 H       
  39 H39           -6.1601     3.2563     0.3031 H       
  40 H40           -6.8998     2.1447    -0.8778 H       
  41 H41           -6.6968     1.7292     2.1406 H       
  42 H42           -8.1800     2.0523     1.2100 H       
  43 H43           -5.4890    -0.4160     1.8700 H       
  44 H44           -6.0928    -1.6545     0.7423 H       
  45 H45           -5.5677    -0.2251    -1.1811 H       
  46 H46           -4.1130    -0.3773    -0.1624 H       
  47 H47           -8.5565    -2.3323     0.8933 H       
  48 H48           -8.0151     1.1443     3.3064 H       
  49 H49           -9.4044     0.1478     5.0744 H       
  50 H50           -9.9521    -3.3461     2.6465 H       
  51 H51            1.5643     1.1795     1.4097 H       
  52 H52            2.3413     2.3834     3.2569 H       
  53 H53            0.1728     3.0628     5.1916 H       
  54 H54            2.0688     2.6015     6.6768 H       
  55 H55            3.2716     2.9798     5.3655 H       
  56 H56            2.2001     5.0346     3.9073 H       
  57 H57            0.5969     5.4242     4.6737 H       
@<TRIPOS>BOND
   1    1    2 ar
   2    1   25 1
   3    1    6 ar
   4    2    3 ar
   5    2    7 1
   6    3    4 ar
   7    3   33 1
   8    4    5 ar
   9    4   34 1
  10    5    6 ar
  11    5    8 1
  12    6   35 1
  13    7   36 1
  14    7   37 1
  15    7   38 1
  16    8    9 2
  17    8   10 am
  18   10   11 1
  19   10   15 1
  20   11   12 1
  21   11   39 1
  22   11   40 1
  23   12   13 1
  24   12   41 1
  25   12   42 1
  26   13   14 1
  27   13   16 1
  28   13   18 1
  29   14   15 1
  30   14   43 1
  31   14   44 1
  32   15   45 1
  33   15   46 1
  34   16   17 ar
  35   16   19 ar
  36   17   22 ar
  37   17   47 1
  38   19   20 ar
  39   19   48 1
  40   20   21 ar
  41   20   49 1
  42   21   22 ar
  43   21   23 1
  44   22   50 1
  45   23   24 3
  46   25   26 am
  47   25   51 1
  48   26   27 2
  49   26   28 am
  50   28   29 1
  51   28   52 1
  52   29   30 1
  53   29   32 1
  54   29   53 1
  55   30   31 1
  56   30   54 1
  57   30   55 1
  58   31   32 1
  59   32   56 1
  60   32   57 1

#	End of record

