#	Name: ASD06170385
#	Creating user name:	WinNT
#	Creation time:	15. 06. 2019 21:05

#	Modifying user name:	WinNT
#	Modification time:	15. 06. 2019 21:05

#	Program:	/corina/corina34_cracker 3.40 0067  02.08.2006

@<TRIPOS>MOLECULE
ASD06170385
  77   81    0    0    0
SMALL
NO_CHARGES


@<TRIPOS>ATOM
   1 N1             0.0994     1.2540     0.7752 N.am    
   2 N2             0.3386    -0.0643     1.1747 N.pl3   
   3 C3             1.6447    -0.3581     1.0285 C.2     
   4 C4             2.2918     0.7563     0.5313 C.2     
   5 C5             1.2659     1.7992     0.3723 C.2     
   6 C6             3.7218     0.8767     0.2227 C.2     
   7 O7             4.4650    -0.0700     0.4028 O.2     
   8 N8             4.2117     2.0357    -0.2601 N.am    
   9 C9             5.5945     2.2073    -0.3996 C.ar    
  10 C10            6.4139     1.1051    -0.6026 C.ar    
  11 C11            8.3302     2.5441    -0.6763 C.ar    
  12 C12            7.5108     3.6491    -0.4788 C.ar    
  13 C13            6.1459     3.4807    -0.3406 C.ar    
  14 O14            9.6733     2.7092    -0.8119 O.3     
  15 N15           11.8372     3.6229     2.5522 N.ar    
  16 C16           12.5130     3.4055     1.4032 C.ar    
  17 C17           11.7972     3.0925     0.2447 C.ar    
  18 C18           10.3936     3.0109     0.2983 C.ar    
  19 C19            9.7631     3.2459     1.5089 C.ar    
  20 C20           10.5327     3.5512     2.6220 C.ar    
  21 O21            1.4362     2.9308    -0.0415 O.2     
  22 C22           -1.1423     1.8978     0.7856 C.ar    
  23 C23           -1.9826     1.7712     1.8841 C.ar    
  24 C24           -3.2080     2.4081     1.8913 C.ar    
  25 C25            7.7781     1.2739    -0.7402 C.ar    
  26 C26            2.2913    -1.6801     1.3528 C.3     
  27 C27           -0.6803    -0.9886     1.6784 C.3     
  28 C28           -3.5988     3.1709     0.8061 C.ar    
  29 C29           -2.7645     3.2990    -0.2892 C.ar    
  30 C30           -1.5351     2.6697    -0.3001 C.ar    
  31 C31           -1.3734    -1.6752     0.4998 C.3     
  32 C32           -0.3394    -2.4521    -0.3177 C.3     
  33 F33            8.0481     4.8873    -0.4220 F       
  34 S34           12.9108     2.8605    -1.0969 S.3     
  35 C35           14.2942     3.1888    -0.0678 C.2     
  36 C36           13.8989     3.4485     1.1835 C.2     
  37 C37           15.6949     3.1797    -0.5191 C.2     
  38 O38           16.5894     3.4197     0.2693 O.2     
  39 N39           15.9865     2.9055    -1.8060 N.am    
  40 C40           -2.4374    -2.6405     1.0259 C.3     
  41 O41           -1.9926    -0.6893    -0.3288 O.3     
  42 C42           17.3809     2.8965    -2.2553 C.3     
  43 C43           17.4340     2.5596    -3.7468 C.3     
  44 O44           16.8030     3.6020    -4.4933 O.3     
  45 C45           16.7983     3.3843    -5.9057 C.3     
  46 H46            3.6065     2.7510    -0.5110 H       
  47 H47            5.9847     0.1153    -0.6525 H       
  48 H48            5.5084     4.3389    -0.1871 H       
  49 H49            8.6872     3.1917     1.5854 H       
  50 H50           10.0440     3.7343     3.5675 H       
  51 H51           -1.6783     1.1750     2.7317 H       
  52 H52           -3.8619     2.3101     2.7452 H       
  53 H53            8.4149     0.4159    -0.8974 H       
  54 H54            2.2672    -2.3221     0.4722 H       
  55 H55            3.3258    -1.5145     1.6535 H       
  56 H56            1.7486    -2.1599     2.1672 H       
  57 H57           -0.2080    -1.7406     2.3104 H       
  58 H58           -1.4169    -0.4351     2.2608 H       
  59 H59           -4.5579     3.6675     0.8139 H       
  60 H60           -3.0727     3.8952    -1.1353 H       
  61 H61           -0.8840     2.7701    -1.1558 H       
  62 H62            0.1329    -3.2041     0.3143 H       
  63 H63           -0.8332    -2.9412    -1.1574 H       
  64 H64            0.4186    -1.7643    -0.6925 H       
  65 H65           14.6000     3.6758     1.9730 H       
  66 H66           15.2731     2.7141    -2.4348 H       
  67 H67           -3.1740    -2.0871     1.6083 H       
  68 H68           -2.9312    -3.1297     0.1862 H       
  69 H69           -1.9651    -3.3926     1.6579 H       
  70 H70           -2.6609    -0.1576     0.1249 H       
  71 H71           17.8226     3.8790    -2.0888 H       
  72 H72           17.9387     2.1473    -1.6935 H       
  73 H73           18.4734     2.4654    -4.0612 H       
  74 H74           16.9137     1.6186    -3.9255 H       
  75 H75           17.8245     3.3073    -6.2649 H       
  76 H76           16.2648     2.4605    -6.1291 H       
  77 H77           16.3019     4.2193    -6.4003 H       
@<TRIPOS>BOND
   1    1    2 1
   2    1    5 am
   3    1   22 1
   4    2    3 1
   5    2   27 1
   6    3    4 2
   7    3   26 1
   8    4    5 1
   9    4    6 1
  10    5   21 2
  11    6    7 2
  12    6    8 am
  13    8    9 1
  14    8   46 1
  15    9   10 ar
  16    9   13 ar
  17   10   25 ar
  18   10   47 1
  19   11   12 ar
  20   11   14 1
  21   11   25 ar
  22   12   13 ar
  23   12   33 1
  24   13   48 1
  25   14   18 1
  26   15   16 ar
  27   15   20 ar
  28   16   17 ar
  29   16   36 1
  30   17   18 ar
  31   17   34 1
  32   18   19 ar
  33   19   20 ar
  34   19   49 1
  35   20   50 1
  36   22   23 ar
  37   22   30 ar
  38   23   24 ar
  39   23   51 1
  40   24   28 ar
  41   24   52 1
  42   25   53 1
  43   26   54 1
  44   26   55 1
  45   26   56 1
  46   27   31 1
  47   27   57 1
  48   27   58 1
  49   28   29 ar
  50   28   59 1
  51   29   30 ar
  52   29   60 1
  53   30   61 1
  54   31   32 1
  55   31   40 1
  56   31   41 1
  57   32   62 1
  58   32   63 1
  59   32   64 1
  60   34   35 1
  61   35   36 2
  62   35   37 1
  63   36   65 1
  64   37   38 2
  65   37   39 am
  66   39   42 1
  67   39   66 1
  68   40   67 1
  69   40   68 1
  70   40   69 1
  71   41   70 1
  72   42   43 1
  73   42   71 1
  74   42   72 1
  75   43   44 1
  76   43   73 1
  77   43   74 1
  78   44   45 1
  79   45   75 1
  80   45   76 1
  81   45   77 1

#	End of record

