#	Name: ASD03730470
#	Creating user name:	WinNT
#	Creation time:	15. 06. 2019 20:44

#	Modifying user name:	WinNT
#	Modification time:	15. 06. 2019 20:44

#	Program:	/corina/corina34_cracker 3.40 0067  02.08.2006

@<TRIPOS>MOLECULE
ASD03730470
  55   60    0    0    0
SMALL
NO_CHARGES


@<TRIPOS>ATOM
   1 C1            -0.0185     1.5024     0.0149 C.2     
   2 C2             0.0015    -0.0045     0.0116 C.3     
   3 O3             1.0237     2.1227     0.0084 O.2     
   4 N4            -1.1946     2.1607     0.0195 N.am    
   5 O5             6.2418     2.8840     2.1106 O.3     
   6 C6             7.6618     2.8282     2.3421 C.3     
   7 O7             7.8729     1.4999     2.8559 O.3     
   8 C8             6.8627     0.7420     2.3365 C.ar    
   9 C9             5.8596     1.5936     1.8793 C.ar    
  10 C10            6.7159    -0.6281     2.2139 C.ar    
  11 C11            5.5692    -1.1655     1.6370 C.ar    
  12 C12            4.5704    -0.3050     1.1916 C.ar    
  13 C13            4.7164     1.0617     1.3068 C.ar    
  14 O14            5.2370    -2.4684     1.4080 O.3     
  15 C15            3.4651    -1.1733     0.6528 C.3     
  16 C16            3.8157    -2.5659     1.1942 C.3     
  17 N17            1.3890    -0.4744     0.0002 N.am    
  18 C18            2.1099    -0.7186     1.1127 C.2     
  19 C19            3.4034    -1.1547    -0.8458 C.ar    
  20 C20            4.3069    -1.4605    -1.8390 C.ar    
  21 C21            3.9422    -1.3409    -3.1682 C.ar    
  22 C22            2.6687    -0.9130    -3.4968 C.ar    
  23 C23            1.7605    -0.6046    -2.5055 C.ar    
  24 C24            2.1188    -0.7224    -1.1648 C.ar    
  25 O25            1.7369    -0.5955     2.2603 O.2     
  26 C26           -1.2153     3.5552     0.1328 C.ar    
  27 C27           -0.2680     4.2040     0.9139 C.ar    
  28 C28           -0.2912     5.5806     1.0238 C.ar    
  29 C29           -1.2564     6.3127     0.3569 C.ar    
  30 C30           -2.2013     5.6696    -0.4214 C.ar    
  31 C31           -2.1797     4.2938    -0.5403 C.ar    
  32 C32           -3.2516     6.4714    -1.1461 C.3     
  33 C33            0.7360     6.2855     1.8717 C.3     
  34 H34           -0.5008    -0.3765     0.9046 H       
  35 H35           -0.5142    -0.3727    -0.8753 H       
  36 H36           -2.0266     1.6678    -0.0558 H       
  37 H37            8.2077     2.9693     1.4092 H       
  38 H38            7.9595     3.5753     3.0779 H       
  39 H39            7.4965    -1.2850     2.5683 H       
  40 H40            3.9370     1.7186     0.9499 H       
  41 H41            3.5868    -3.3364     0.4580 H       
  42 H42            3.2954    -2.7587     2.1325 H       
  43 H43            5.3009    -1.7942    -1.5801 H       
  44 H44            4.6503    -1.5815    -3.9474 H       
  45 H45            2.3841    -0.8196    -4.5344 H       
  46 H46            0.7681    -0.2706    -2.7700 H       
  47 H47            0.4858     3.6328     1.4353 H       
  48 H48           -1.2724     7.3890     0.4443 H       
  49 H49           -2.9151     3.7924    -1.1522 H       
  50 H50           -2.8843     6.7402    -2.1365 H       
  51 H51           -4.1594     5.8762    -1.2444 H       
  52 H52           -3.4707     7.3776    -0.5815 H       
  53 H53            1.6048     6.5309     1.2608 H       
  54 H54            0.3061     7.2016     2.2767 H       
  55 H55            1.0402     5.6338     2.6907 H       
@<TRIPOS>BOND
   1    1    2 1
   2    1    3 2
   3    1    4 am
   4    2   17 1
   5    2   34 1
   6    2   35 1
   7    4   26 1
   8    4   36 1
   9    5    6 1
  10    5    9 1
  11    6    7 1
  12    6   37 1
  13    6   38 1
  14    7    8 1
  15    8    9 ar
  16    8   10 ar
  17    9   13 ar
  18   10   11 ar
  19   10   39 1
  20   11   12 ar
  21   11   14 1
  22   12   13 ar
  23   12   15 1
  24   13   40 1
  25   14   16 1
  26   15   16 1
  27   15   18 1
  28   15   19 1
  29   16   41 1
  30   16   42 1
  31   17   18 am
  32   17   24 1
  33   18   25 2
  34   19   20 ar
  35   19   24 ar
  36   20   21 ar
  37   20   43 1
  38   21   22 ar
  39   21   44 1
  40   22   23 ar
  41   22   45 1
  42   23   24 ar
  43   23   46 1
  44   26   27 ar
  45   26   31 ar
  46   27   28 ar
  47   27   47 1
  48   28   29 ar
  49   28   33 1
  50   29   30 ar
  51   29   48 1
  52   30   31 ar
  53   30   32 1
  54   31   49 1
  55   32   50 1
  56   32   51 1
  57   32   52 1
  58   33   53 1
  59   33   54 1
  60   33   55 1

#	End of record

