#	Name: ASD01418021
#	Creating user name:	WinNT
#	Creation time:	15. 06. 2019 19:20

#	Modifying user name:	WinNT
#	Modification time:	15. 06. 2019 19:20

#	Program:	/corina/corina34_cracker 3.40 0067  02.08.2006

@<TRIPOS>MOLECULE
ASD01418021
  41   43    0    0    0
SMALL
NO_CHARGES


@<TRIPOS>ATOM
   1 C1            -0.0143     1.2041     0.0087 C.2     
   2 C2            -1.3295     1.9397     0.0189 C.3     
   3 O3             0.0021    -0.0041     0.0020 O.2     
   4 O4             1.1389     1.8910     0.0013 O.3     
   5 C5            -1.4152     2.7983     1.2545 C.ar    
   6 C6            -1.1470     4.1521     1.1748 C.ar    
   7 C7            -1.2258     4.9405     2.3071 C.ar    
   8 C8            -1.5735     4.3739     3.5217 C.ar    
   9 C9            -1.8419     3.0179     3.6003 C.ar    
  10 C10           -1.7676     2.2324     2.4656 C.ar    
  11 F11           -1.6503     5.1436     4.6293 F       
  12 N12           -2.4300     0.9727     0.0189 N.pl3   
  13 S13           -4.1946    -0.7258    -1.3652 S.3     
  14 C14           -2.8822     0.4489    -1.1646 C.2     
  15 N15           -2.4262     0.7221    -2.3643 N.2     
  16 C16           -2.9533     0.1463    -3.4234 C.2     
  17 C17           -4.0501    -0.7868    -3.1341 C.2     
  18 O18           -2.5615     0.3705    -4.5584 O.2     
  19 C19           -4.7836    -1.5250    -4.0150 C.2     
  20 O20           -6.1659    -2.5505    -2.2528 O.3     
  21 C21           -5.8090    -2.3753    -3.5425 C.2     
  22 C22           -6.6253    -3.1750    -4.3180 C.2     
  23 C23           -7.4893    -3.8389    -3.4345 C.2     
  24 C24           -7.1757    -3.4297    -2.1849 C.2     
  25 C25           -7.8517    -3.8889    -0.9188 C.3     
  26 C26           -7.1315    -5.1246    -0.3753 C.3     
  27 H27           -1.4000     2.5704    -0.8673 H       
  28 H28            1.9569     1.3754    -0.0092 H       
  29 H29           -0.8755     4.5937     0.2274 H       
  30 H30           -1.0158     5.9980     2.2447 H       
  31 H31           -2.1132     2.5749     4.5471 H       
  32 H32           -1.9809     1.1754     2.5258 H       
  33 H33           -2.8387     0.7030     0.8562 H       
  34 H34           -4.5810    -1.4601    -5.0739 H       
  35 H35           -6.6031    -3.2703    -5.3936 H       
  36 H36           -8.2613    -4.5450    -3.7026 H       
  37 H37           -7.8144    -3.0911    -0.1770 H       
  38 H38           -8.8911    -4.1386    -1.1318 H       
  39 H39           -7.1688    -5.9224    -1.1171 H       
  40 H40           -6.0921    -4.8749    -0.1623 H       
  41 H41           -7.6205    -5.4567     0.5404 H       
@<TRIPOS>BOND
   1    1    3 2
   2    1    4 1
   3    1    2 1
   4    2    5 1
   5    2   12 1
   6    2   27 1
   7    4   28 1
   8    5    6 ar
   9    5   10 ar
  10    6    7 ar
  11    6   29 1
  12    7    8 ar
  13    7   30 1
  14    8    9 ar
  15    8   11 1
  16    9   10 ar
  17    9   31 1
  18   10   32 1
  19   12   14 1
  20   12   33 1
  21   13   14 1
  22   13   17 1
  23   14   15 2
  24   15   16 1
  25   16   17 1
  26   16   18 2
  27   17   19 2
  28   19   21 1
  29   19   34 1
  30   20   21 1
  31   20   24 1
  32   21   22 2
  33   22   23 1
  34   22   35 1
  35   23   24 2
  36   23   36 1
  37   24   25 1
  38   25   26 1
  39   25   37 1
  40   25   38 1
  41   26   39 1
  42   26   40 1
  43   26   41 1

#	End of record

