#	Name: ASD01916465
#	Creating user name:	WinNT
#	Creation time:	15. 06. 2019 20:07

#	Modifying user name:	WinNT
#	Modification time:	15. 06. 2019 20:07

#	Program:	/corina/corina34_cracker 3.40 0067  02.08.2006

@<TRIPOS>MOLECULE
ASD01916465
  39   42    0    0    0
SMALL
NO_CHARGES


@<TRIPOS>ATOM
   1 C1            -0.0171     1.4099     0.0098 C.ar    
   2 C2             0.0021    -0.0041     0.0020 C.ar    
   3 C3            -1.1914    -0.7256     0.0337 C.ar    
   4 C4            -2.3842    -0.0644     0.0625 C.ar    
   5 C5            -2.4218     1.3383     0.0584 C.ar    
   6 C6            -1.2408     2.0763     0.0336 C.ar    
   7 N7             1.1594     2.0790     0.0022 N.2     
   8 C8             2.3151     1.4698    -0.0311 C.2     
   9 N9             2.4173     0.1173    -0.1213 N.am    
  10 C10            1.3108    -0.6657    -0.0503 C.2     
  11 C11           -3.6832     2.0157     0.0804 C.1     
  12 C12           -4.7174     2.5711     0.0985 C.1     
  13 C13           -5.9788     3.2486     0.1205 C.ar    
  14 N14           -6.0143     4.5776     0.1166 N.ar    
  15 C15           -7.1541     5.2371     0.1363 C.ar    
  16 C16           -8.3634     4.5662     0.1624 C.ar    
  17 C17           -8.3735     3.1778     0.1674 C.ar    
  18 C18           -7.1636     2.5081     0.1401 C.ar    
  19 O19            1.4014    -1.8796    -0.0310 O.2     
  20 C20            3.5501     2.3354     0.0779 C.3     
  21 O21            4.6857     1.6393    -0.4343 O.3     
  22 C22            4.8477     0.3417     0.1529 C.3     
  23 C23            3.7056    -0.5485    -0.3369 C.3     
  24 C24            6.1890    -0.2558    -0.2769 C.3     
  25 H25           -1.1711    -1.8054     0.0351 H       
  26 H26           -3.3069    -0.6250     0.0882 H       
  27 H27           -1.2732     3.1558     0.0320 H       
  28 H28           -7.1444     6.3170     0.1325 H       
  29 H29           -9.2919     5.1176     0.1792 H       
  30 H30           -9.3057     2.6328     0.1876 H       
  31 H31           -7.1349     1.4285     0.1427 H       
  32 H32            3.4005     3.2518    -0.4930 H       
  33 H33            3.7230     2.5881     1.1240 H       
  34 H34            4.8114     0.4224     1.2393 H       
  35 H35            3.7214    -1.4906     0.2110 H       
  36 H36            3.8348    -0.7495    -1.4004 H       
  37 H37            6.9991     0.3940     0.0543 H       
  38 H38            6.3079    -1.2420     0.1719 H       
  39 H39            6.2157    -0.3451    -1.3629 H       
@<TRIPOS>BOND
   1    1    2 ar
   2    1    7 1
   3    1    6 ar
   4    2    3 ar
   5    2   10 1
   6    3    4 ar
   7    3   25 1
   8    4    5 ar
   9    4   26 1
  10    5    6 ar
  11    5   11 1
  12    6   27 1
  13    7    8 2
  14    8    9 1
  15    8   20 1
  16    9   10 am
  17    9   23 1
  18   10   19 2
  19   11   12 3
  20   12   13 1
  21   13   14 ar
  22   13   18 ar
  23   14   15 ar
  24   15   16 ar
  25   15   28 1
  26   16   17 ar
  27   16   29 1
  28   17   18 ar
  29   17   30 1
  30   18   31 1
  31   20   21 1
  32   20   32 1
  33   20   33 1
  34   21   22 1
  35   22   23 1
  36   22   24 1
  37   22   34 1
  38   23   35 1
  39   23   36 1
  40   24   37 1
  41   24   38 1
  42   24   39 1

#	End of record

