#	Name: ASD03330497
#	Creating user name:	WinNT
#	Creation time:	15. 06. 2019 20:37

#	Modifying user name:	WinNT
#	Modification time:	15. 06. 2019 20:37

#	Program:	/corina/corina34_cracker 3.40 0067  02.08.2006

@<TRIPOS>MOLECULE
ASD03330497
  54   56    0    0    0
SMALL
NO_CHARGES


@<TRIPOS>ATOM
   1 C1            -0.7820    -0.2832     0.5162 C.3     
   2 N2            -0.3465    -1.6791     0.3687 N.3     
   3 C3             0.1758    -1.9332    -0.9861 C.3     
   4 C4             1.1792    -0.8560    -1.3082 C.2     
   5 N5             1.2902     0.3042    -0.6096 N.pl3   
   6 C6             0.4407     0.6432     0.5357 C.3     
   7 C7             2.1131    -0.8245    -2.2915 C.2     
   8 N8             2.7833     0.3456    -2.1835 N.2     
   9 C9             2.2930     1.0279    -1.1729 C.2     
  10 C10            2.7550     2.3599    -0.7240 C.ar    
  11 C11            2.3540    -1.8753    -3.2962 C.2     
  12 O12            1.6810    -2.8883    -3.2900 O.2     
  13 C13            3.5595    -2.7583    -5.2208 C.3     
  14 N14            3.3201    -1.7137    -4.2220 N.am    
  15 C15           -1.4365    -2.6080     0.6955 C.3     
  16 C16            5.0039    -2.6677    -5.7172 C.3     
  17 C17            2.6168    -2.5694    -6.3812 C.2     
  18 O18            1.9482    -1.5607    -6.4614 O.2     
  19 C19            3.5661     3.1358    -1.5526 C.ar    
  20 C20            5.9602    -2.7901    -4.5292 C.3     
  21 C21            3.9936     4.3771    -1.1282 C.ar    
  22 C22            3.6198     4.8526     0.1160 C.ar    
  23 C23            2.8160     4.0878     0.9425 C.ar    
  24 C24            2.3767     2.8475     0.5271 C.ar    
  25 C25            5.2745    -3.8013    -6.7085 C.3     
  26 C26            5.2215    -1.3212    -6.4104 C.3     
  27 N27            2.5165    -3.5215    -7.3299 N.am    
  28 H28           -1.4269    -0.0144    -0.3204 H       
  29 H29           -1.3351    -0.1728     1.4489 H       
  30 H30            0.6603    -2.9092    -1.0171 H       
  31 H31           -0.6409    -1.9035    -1.7074 H       
  32 H32            0.1170     1.6811     0.4590 H       
  33 H33            0.9970     0.4984     1.4618 H       
  34 H34            3.3906    -3.7367    -4.7710 H       
  35 H35            3.8568    -0.9057    -4.2269 H       
  36 H36           -2.3028    -2.3853     0.0725 H       
  37 H37           -1.1096    -3.6312     0.5108 H       
  38 H38           -1.7061    -2.4967     1.7457 H       
  39 H39            3.8589     2.7655    -2.5239 H       
  40 H40            5.8052    -3.7493    -4.0353 H       
  41 H41            6.9892    -2.7255    -4.8828 H       
  42 H42            5.7674    -1.9825    -3.8229 H       
  43 H43            4.6218     4.9786    -1.7685 H       
  44 H44            3.9570     5.8249     0.4437 H       
  45 H45            2.5281     4.4643     1.9129 H       
  46 H46            1.7493     2.2514     1.1732 H       
  47 H47            4.5887    -3.7181    -7.5517 H       
  48 H48            6.3015    -3.7327    -7.0674 H       
  49 H49            5.1261    -4.7606    -6.2128 H       
  50 H50            5.0287    -0.5137    -5.7042 H       
  51 H51            6.2505    -1.2567    -6.7641 H       
  52 H52            4.5402    -1.2341    -7.2568 H       
  53 H53            2.9990    -4.3571    -7.2312 H       
  54 H54            1.9619    -3.3710    -8.1113 H       
@<TRIPOS>BOND
   1    1    2 1
   2    1    6 1
   3    1   28 1
   4    1   29 1
   5    2    3 1
   6    2   15 1
   7    3    4 1
   8    3   30 1
   9    3   31 1
  10    4    5 1
  11    4    7 2
  12    5    6 1
  13    5    9 1
  14    6   32 1
  15    6   33 1
  16    7    8 1
  17    7   11 1
  18    8    9 2
  19    9   10 1
  20   10   19 ar
  21   10   24 ar
  22   11   12 2
  23   11   14 am
  24   13   14 1
  25   13   16 1
  26   13   17 1
  27   13   34 1
  28   14   35 1
  29   15   36 1
  30   15   37 1
  31   15   38 1
  32   16   20 1
  33   16   25 1
  34   16   26 1
  35   17   18 2
  36   17   27 am
  37   19   21 ar
  38   19   39 1
  39   20   40 1
  40   20   41 1
  41   20   42 1
  42   21   22 ar
  43   21   43 1
  44   22   23 ar
  45   22   44 1
  46   23   24 ar
  47   23   45 1
  48   24   46 1
  49   25   47 1
  50   25   48 1
  51   25   49 1
  52   26   50 1
  53   26   51 1
  54   26   52 1
  55   27   53 1
  56   27   54 1

#	End of record

