#	Name: ASD03092716
#	Creating user name:	WinNT
#	Creation time:	15. 06. 2019 20:33

#	Modifying user name:	WinNT
#	Modification time:	15. 06. 2019 20:33

#	Program:	/corina/corina34_cracker 3.40 0067  02.08.2006

@<TRIPOS>MOLECULE
ASD03092716
  45   47    0    0    0
SMALL
NO_CHARGES


@<TRIPOS>ATOM
   1 C1            -0.0501     1.1857     0.0141 C.2     
   2 O2             0.6517     1.2270    -0.9784 O.2     
   3 C3             0.3870     0.4156     1.1960 C.ar    
   4 C4             1.5492    -0.3579     1.1384 C.ar    
   5 C5             1.9526    -1.0741     2.2445 C.ar    
   6 C6             1.2071    -1.0285     3.4131 C.ar    
   7 C7             0.0525    -0.2628     3.4758 C.ar    
   8 C8            -0.3570     0.4623     2.3778 C.ar    
   9 F9             1.6070    -1.7330     4.4943 F       
  10 C10           -2.5498     1.2132    -0.0917 C.ar    
  11 C11           -1.3336     1.9090     0.0395 C.ar    
  12 C12           -1.3638     3.2985     0.1948 C.ar    
  13 C13           -2.6050     3.9339     0.2125 C.ar    
  14 C14           -3.7642     3.1703     0.0762 C.ar    
  15 N15           -3.7037     1.8624    -0.0686 N.ar    
  16 N16           -2.5396    -0.1594    -0.2518 N.pl3   
  17 C17           -3.8012    -0.9036    -0.2751 C.3     
  18 C18           -2.6915     5.4062     0.3752 C.ar    
  19 C19           -3.9352     6.0349     0.3922 C.ar    
  20 C20           -4.0125     7.4036     0.5440 C.ar    
  21 C21           -2.8531     8.1549     0.6795 C.ar    
  22 C22           -1.6128     7.5315     0.6630 C.ar    
  23 C23           -1.5295     6.1625     0.5172 C.ar    
  24 O24           -2.9323     9.5033     0.8281 O.3     
  25 C25           -1.7002    10.2147     0.9622 C.3     
  26 C26           -1.9886    11.7092     1.1181 C.3     
  27 H27            2.1301    -0.3947     0.2287 H       
  28 H28            2.8507    -1.6724     2.2012 H       
  29 H29           -0.5243    -0.2313     4.3883 H       
  30 H30           -1.2538     1.0618     2.4291 H       
  31 H31           -0.4499     3.8645     0.2986 H       
  32 H32           -4.7271     3.6593     0.0895 H       
  33 H33           -1.6970    -0.6301    -0.3488 H       
  34 H34           -4.4183    -0.5469    -1.0998 H       
  35 H35           -3.5943    -1.9654    -0.4090 H       
  36 H36           -4.3298    -0.7522     0.6660 H       
  37 H37           -4.8375     5.4510     0.2861 H       
  38 H38           -4.9760     7.8913     0.5572 H       
  39 H39           -0.7125     8.1186     0.7683 H       
  40 H40           -0.5645     5.6776     0.5086 H       
  41 H41           -1.1663     9.8540     1.8414 H       
  42 H42           -1.0889    10.0533     0.0743 H       
  43 H43           -2.5225    12.0698     0.2389 H       
  44 H44           -2.5999    11.8706     2.0060 H       
  45 H45           -1.0488    12.2518     1.2204 H       
@<TRIPOS>BOND
   1    1    2 2
   2    1    3 1
   3    1   11 1
   4    3    4 ar
   5    3    8 ar
   6    4    5 ar
   7    4   27 1
   8    5    6 ar
   9    5   28 1
  10    6    7 ar
  11    6    9 1
  12    7    8 ar
  13    7   29 1
  14    8   30 1
  15   10   11 ar
  16   10   15 ar
  17   10   16 1
  18   11   12 ar
  19   12   13 ar
  20   12   31 1
  21   13   14 ar
  22   13   18 1
  23   14   15 ar
  24   14   32 1
  25   16   17 1
  26   16   33 1
  27   17   34 1
  28   17   35 1
  29   17   36 1
  30   18   19 ar
  31   18   23 ar
  32   19   20 ar
  33   19   37 1
  34   20   21 ar
  35   20   38 1
  36   21   22 ar
  37   21   24 1
  38   22   23 ar
  39   22   39 1
  40   23   40 1
  41   24   25 1
  42   25   26 1
  43   25   41 1
  44   25   42 1
  45   26   43 1
  46   26   44 1
  47   26   45 1

#	End of record

