#	Name: ASD07930304
#	Creating user name:	WinNT
#	Creation time:	15. 06. 2019 21:12

#	Modifying user name:	WinNT
#	Modification time:	15. 06. 2019 21:12

#	Program:	/corina/corina34_cracker 3.40 0067  02.08.2006

@<TRIPOS>MOLECULE
ASD07930304
  56   59    0    0    0
SMALL
NO_CHARGES


@<TRIPOS>ATOM
   1 C1            -0.0208     1.8026     0.3895 C.2     
   2 C2            -0.0922     0.4378     0.4477 C.2     
   3 C3             1.1496    -0.3376     0.3936 C.2     
   4 N4             2.3244     0.3076     0.2903 N.am    
   5 C5             2.3699     1.6822     0.2315 C.2     
   6 C6             1.2296     2.4235     0.2798 C.2     
   7 C7             3.5887    -0.4390     0.2399 C.3     
   8 C8             4.5006     0.2386    -0.7937 C.3     
   9 N9             4.7312     1.6279    -0.3728 N.am    
  10 C10            3.6884     2.3432     0.1126 C.2     
  11 C11            6.0638     2.2277    -0.4763 C.3     
  12 O12            3.8327     3.5041     0.4436 O.2     
  13 O13            1.1179    -1.5555     0.4421 O.2     
  14 N14           -1.3282    -0.2057     0.5574 N.pl3   
  15 C15           -1.8967    -1.0262    -0.3649 C.2     
  16 N16           -3.0484    -1.4329     0.0948 N.2     
  17 C17           -3.2574    -0.8979     1.3071 C.2     
  18 C18           -2.1939    -0.1331     1.6185 C.2     
  19 C19           -4.4703    -1.1195     2.1735 C.3     
  20 C20            7.0174     1.5212     0.4893 C.3     
  21 O21            7.2012     0.1670     0.0717 O.3     
  22 C22            8.0263    -0.6053     0.8274 C.ar    
  23 C23            8.6455    -0.0701     1.9470 C.ar    
  24 C24            9.4839    -0.8561     2.7140 C.ar    
  25 C25            9.7063    -2.1772     2.3652 C.ar    
  26 C26            9.0886    -2.7129     1.2475 C.ar    
  27 C27            8.2452    -1.9310     0.4824 C.ar    
  28 C28            6.5819     2.0751    -1.9077 C.3     
  29 C29            5.6986     2.8850    -2.8589 C.3     
  30 F30           10.5270    -2.9444     3.1155 F       
  31 C31            7.5728    -2.5145    -0.7336 C.3     
  32 F32            7.9550    -3.8522    -0.8809 F       
  33 F33            6.1843    -2.4404    -0.5793 F       
  34 F34            7.9550    -1.7925    -1.8692 F       
  35 H35           -0.9221     2.3966     0.4233 H       
  36 H36            1.2897     3.5008     0.2331 H       
  37 H37            4.0660    -0.4216     1.2197 H       
  38 H38            3.3961    -1.4696    -0.0584 H       
  39 H39            5.4520    -0.2909    -0.8457 H       
  40 H40            4.0181     0.2274    -1.7710 H       
  41 H41            6.0067     3.2859    -0.2213 H       
  42 H42           -1.4676    -1.2959    -1.3186 H       
  43 H43           -2.0529     0.4343     2.5266 H       
  44 H44           -4.3032    -1.9818     2.8190 H       
  45 H45           -4.6455    -0.2353     2.7865 H       
  46 H46           -5.3397    -1.3017     1.5418 H       
  47 H47            7.9789     2.0346     0.4910 H       
  48 H48            6.5951     1.5375     1.4940 H       
  49 H49            8.4728     0.9608     2.2189 H       
  50 H50            9.9662    -0.4396     3.5859 H       
  51 H51            9.2633    -3.7435     0.9763 H       
  52 H52            7.6072     2.4410    -1.9639 H       
  53 H53            6.5552     1.0237    -2.1937 H       
  54 H54            4.6734     2.5192    -2.8027 H       
  55 H55            5.7253     3.9365    -2.5729 H       
  56 H56            6.0677     2.7763    -3.8787 H       
@<TRIPOS>BOND
   1    1    2 2
   2    1    6 1
   3    1   35 1
   4    2    3 1
   5    2   14 1
   6    3    4 am
   7    3   13 2
   8    4    5 1
   9    4    7 1
  10    5    6 2
  11    5   10 1
  12    6   36 1
  13    7    8 1
  14    7   37 1
  15    7   38 1
  16    8    9 1
  17    8   39 1
  18    8   40 1
  19    9   10 am
  20    9   11 1
  21   10   12 2
  22   11   20 1
  23   11   28 1
  24   11   41 1
  25   14   15 1
  26   14   18 1
  27   15   16 2
  28   15   42 1
  29   16   17 1
  30   17   18 2
  31   17   19 1
  32   18   43 1
  33   19   44 1
  34   19   45 1
  35   19   46 1
  36   20   21 1
  37   20   47 1
  38   20   48 1
  39   21   22 1
  40   22   23 ar
  41   22   27 ar
  42   23   24 ar
  43   23   49 1
  44   24   25 ar
  45   24   50 1
  46   25   26 ar
  47   25   30 1
  48   26   27 ar
  49   26   51 1
  50   27   31 1
  51   28   29 1
  52   28   52 1
  53   28   53 1
  54   29   54 1
  55   29   55 1
  56   29   56 1
  57   31   32 1
  58   31   33 1
  59   31   34 1

#	End of record

