#	Name: ASD00740020
#	Creating user name:	WinNT
#	Creation time:	15. 06. 2019 18:37

#	Modifying user name:	WinNT
#	Modification time:	15. 06. 2019 18:37

#	Program:	/corina/corina34_cracker 3.40 0067  02.08.2006

@<TRIPOS>MOLECULE
ASD00740020
  33   35    0    0    0
SMALL
NO_CHARGES


@<TRIPOS>ATOM
   1 O1            -0.3507     2.2647    -0.8270 O.co2   
   2 S2            -0.7390     3.6628    -0.9295 S.o2    
   3 O3             0.4129     4.5409    -1.0642 O.co2   
   4 O4            -1.7183     3.8815    -1.9827 O.co2   
   5 C5            -1.5245     4.0847     0.5902 C.ar    
   6 C6            -1.1368     5.1957     1.2755 C.ar    
   7 C7            -1.7465     5.5447     2.4788 C.ar    
   8 C8            -2.7466     4.7850     3.0034 C.ar    
   9 C9            -3.1732     3.6309     2.3237 C.ar    
  10 C10           -2.5568     3.2806     1.0974 C.ar    
  11 C11           -2.9853     2.1215     0.4146 C.ar    
  12 C12           -3.9949     1.3528     0.9538 C.ar    
  13 C13           -4.5930     1.7079     2.1593 C.ar    
  14 C14           -4.2029     2.8230     2.8361 C.ar    
  15 N15           -2.3935     1.7579    -0.7934 N.pl3   
  16 C16           -1.8619     0.4759    -0.9528 C.ar    
  17 C17           -1.4038     0.0620    -2.1974 C.ar    
  18 C18           -0.8783    -1.2058    -2.3513 C.ar    
  19 C19           -0.8078    -2.0630    -1.2684 C.ar    
  20 C20           -1.2629    -1.6542    -0.0281 C.ar    
  21 C21           -1.7847    -0.3859     0.1341 C.ar    
  22 H22           -0.3449     5.8151     0.8808 H       
  23 H23           -1.4206     6.4309     3.0030 H       
  24 H24           -3.2097     5.0672     3.9374 H       
  25 H25           -4.3257     0.4654     0.4347 H       
  26 H26           -5.3826     1.0911     2.5624 H       
  27 H27           -4.6789     3.0823     3.7702 H       
  28 H28           -2.3508     2.3949    -1.5237 H       
  29 H29           -1.4589     0.7307    -3.0437 H       
  30 H30           -0.5224    -1.5284    -3.3186 H       
  31 H31           -0.3968    -3.0541    -1.3916 H       
  32 H32           -1.2067    -2.3263     0.8154 H       
  33 H33           -2.1396    -0.0672     1.1031 H       
@<TRIPOS>BOND
   1    1    2 ar
   2    2    3 ar
   3    2    4 ar
   4    2    5 1
   5    5    6 ar
   6    5   10 ar
   7    6    7 ar
   8    6   22 1
   9    7    8 ar
  10    7   23 1
  11    8    9 ar
  12    8   24 1
  13    9   10 ar
  14    9   14 ar
  15   10   11 ar
  16   11   12 ar
  17   11   15 1
  18   12   13 ar
  19   12   25 1
  20   13   14 ar
  21   13   26 1
  22   14   27 1
  23   15   16 1
  24   15   28 1
  25   16   17 ar
  26   16   21 ar
  27   17   18 ar
  28   17   29 1
  29   18   19 ar
  30   18   30 1
  31   19   20 ar
  32   19   31 1
  33   20   21 ar
  34   20   32 1
  35   21   33 1

#	End of record

