#	Name: ASD06600032
#	Creating user name:	WinNT
#	Creation time:	15. 06. 2019 21:07

#	Modifying user name:	WinNT
#	Modification time:	15. 06. 2019 21:07

#	Program:	/corina/corina34_cracker 3.40 0067  02.08.2006

@<TRIPOS>MOLECULE
ASD06600032
 288  290    0    0    0
SMALL
NO_CHARGES


@<TRIPOS>ATOM
   1 C1            -8.6568    -6.7940   -18.1570 C.2     
   2 O2            -8.8120    -7.9475   -17.8158 O.2     
   3 N3            -6.5891    -7.5769   -19.1575 N.am    
   4 C4            -7.4310    -6.3980   -18.9390 C.3     
   5 C5            -7.8535    -5.8157   -20.2893 C.3     
   6 C6            -6.6374    -5.3073   -21.0198 C.2     
   7 C7            -6.2529    -5.6636   -22.2603 C.2     
   8 N8            -5.1052    -4.9697   -22.5338 N.pl3   
   9 C9            -4.8280    -4.2130   -21.4502 C.2     
  10 N10           -5.7513    -4.4163   -20.5507 N.2     
  11 C11          -11.8920    -5.2813   -17.3772 C.2     
  12 O12          -11.7064    -4.3567   -18.1399 O.2     
  13 N13           -9.5834    -5.8675   -17.8416 N.am    
  14 C14          -10.7780    -6.2537   -17.0866 C.3     
  15 C15          -10.4630    -6.2358   -15.5895 C.3     
  16 C16          -15.1467    -4.4806   -15.9181 C.2     
  17 O17          -15.0411    -5.2979   -15.0283 O.2     
  18 N18          -13.0946    -5.4391   -16.7896 N.am    
  19 C19          -14.1776    -4.4938   -17.0721 C.3     
  20 C20          -14.9081    -4.9212   -18.3467 C.3     
  21 C21          -13.9618    -4.7976   -19.5427 C.3     
  22 C22          -15.3679    -6.3739   -18.2082 C.3     
  23 C23          -18.3981    -2.9394   -15.2733 C.2     
  24 O24          -18.4597    -2.4701   -16.3900 O.2     
  25 N25          -16.1307    -3.5607   -15.8750 N.am    
  26 C26          -17.1310    -3.6076   -14.8056 C.3     
  27 C27          -16.5943    -2.8773   -13.5729 C.3     
  28 C28          -15.3977    -3.6168   -13.0323 C.2     
  29 C29          -14.1759    -3.0938   -12.8153 C.2     
  30 N30          -13.3943    -4.1040   -12.3231 N.pl3   
  31 C31          -14.1663    -5.2100   -12.2564 C.2     
  32 N32          -15.3645    -4.9099   -12.6774 N.2     
  33 C33          -21.4672    -1.7106   -13.7131 C.2     
  34 O34          -21.0315    -1.8783   -12.5937 O.2     
  35 N35          -19.4630    -2.8632   -14.4508 N.am    
  36 C36          -20.6949    -2.2136   -14.9054 C.3     
  37 C37          -21.5482    -3.2219   -15.6774 C.3     
  38 C38          -24.8547    -0.4891   -13.0842 C.2     
  39 O39          -25.2324    -0.7984   -14.1945 O.2     
  40 N40          -22.6420    -1.0744   -13.8907 N.am    
  41 C41          -23.3927    -0.5855   -12.7316 C.3     
  42 C42          -22.8721     0.7969   -12.3329 C.3     
  43 C43          -21.4450     0.6798   -11.8631 C.ar    
  44 C44          -20.4078     0.8050   -12.7688 C.ar    
  45 C45          -19.0987     0.6977   -12.3407 C.ar    
  46 C46          -18.8252     0.4646   -11.0007 C.ar    
  47 O47          -17.5383     0.3591   -10.5770 O.3     
  48 C48          -19.8677     0.3398   -10.0939 C.ar    
  49 C49          -21.1749     0.4531   -10.5261 C.ar    
  50 C50          -27.8274     1.0585   -11.6244 C.2     
  51 O51          -27.1772     1.6517   -10.7900 O.2     
  52 N52          -25.7426    -0.0592   -12.1659 N.am    
  53 C53          -27.1638     0.0344   -12.5087 C.3     
  54 C54          -27.8295    -1.3273   -12.3004 C.3     
  55 C55          -27.2411    -2.3387   -13.2862 C.3     
  56 C56          -27.9069    -3.7005   -13.0779 C.3     
  57 N57          -27.3435    -4.6689   -14.0218 N.pl3   
  58 C58          -27.7905    -5.9691   -14.0215 C.2     
  59 N59          -27.2893    -6.8307   -14.8613 N.2     
  60 N60          -28.7662    -6.3603   -13.1355 N.pl3   
  61 C61          -31.2595     2.0019   -10.7913 C.2     
  62 O62          -31.7232     1.0444   -11.3737 O.2     
  63 N63          -29.1434     1.3152   -11.7609 N.am    
  64 C64          -29.7886     2.3107   -10.9012 C.3     
  65 C65          -29.6038     3.7037   -11.5066 C.3     
  66 C66          -34.2450     3.7521    -9.6140 C.2     
  67 O67          -33.6479     4.7998    -9.4845 O.2     
  68 N68          -32.0596     2.7896   -10.0458 N.am    
  69 C69          -33.4895     2.4894    -9.9390 C.3     
  70 C70          -33.7131     1.4611    -8.8283 C.3     
  71 C71          -33.0497     0.1383    -9.2168 C.3     
  72 C72          -33.2733    -0.8899    -8.1061 C.3     
  73 N73          -32.6380    -2.1565    -8.4781 N.pl3   
  74 C74          -32.7071    -3.2356    -7.6290 C.2     
  75 N75          -32.1419    -4.3625    -7.9599 N.2     
  76 N76          -33.3722    -3.1260    -6.4308 N.pl3   
  77 C77          -37.6084     4.5937    -8.4554 C.2     
  78 O78          -37.8866     3.4323    -8.2440 O.2     
  79 N79          -35.5843     3.7173    -9.4674 N.am    
  80 C80          -36.3188     4.9449    -9.1515 C.3     
  81 C81          -36.6272     5.7019   -10.4449 C.3     
  82 C82          -35.3190     6.1669   -11.0879 C.3     
  83 C83          -35.6274     6.9239   -12.3812 C.3     
  84 N84          -34.3748     7.3692   -12.9969 N.pl3   
  85 C85          -34.4015     8.0750   -14.1764 C.2     
  86 N86          -35.5412     8.3479   -14.7469 N.2     
  87 N87          -33.2260     8.4929   -14.7542 N.pl3   
  88 C88          -40.7283     6.2543    -7.5756 C.2     
  89 O89          -40.4363     7.3309    -8.0516 O.2     
  90 N90          -38.4527     5.5701    -8.0678 N.am    
  91 C91          -39.6520     5.2376    -7.2950 C.3     
  92 C92          -39.3163     5.2489    -5.8023 C.3     
  93 C93          -40.5287     4.7668    -5.0032 C.3     
  94 C94          -40.7809     3.2876    -5.3020 C.3     
  95 C95          -40.2581     4.9462    -3.5081 C.3     
  96 C96          -44.2248     6.7710    -6.6958 C.2     
  97 O97          -44.3417     5.7586    -6.0381 O.2     
  98 N98          -42.0155     5.9672    -7.2975 N.am    
  99 C99          -43.0716     6.9175    -7.6548 C.3     
 100 C100         -43.5533     6.6330    -9.0789 C.3     
 101 C101         -44.5805     7.6896    -9.4905 C.3     
 102 C102         -43.8993     9.0569    -9.5761 C.3     
 103 C103         -45.1672     7.3258   -10.8559 C.3     
 104 C104         -47.3636     8.5084    -5.9940 C.2     
 105 O105         -47.3162     9.1309    -7.0338 O.2     
 106 N106         -45.1262     7.7649    -6.5688 N.am    
 107 C107         -46.1899     7.6654    -5.5663 C.3     
 108 C108         -45.6679     8.1647    -4.2176 C.3     
 109 O109         -45.3649     9.5582    -4.3104 O.3     
 110 C110         -49.3911    10.8137    -5.1925 C.2     
 111 O111         -48.3873    11.1132    -4.5904 O.2     
 112 N112         -48.4659     8.5704    -5.2210 N.am    
 113 C113         -49.6069     9.3899    -5.6367 C.3     
 114 C114         -50.8859     8.8447    -4.9982 C.3     
 115 C115         -52.0923     9.6216    -5.5293 C.3     
 116 C116         -53.3797     8.9969    -4.9880 C.3     
 117 C117         -50.8054     9.0041    -3.4787 C.3     
 118 O118         -50.3142    11.7492    -5.4657 O.3     
 119 C119          -5.2651    -7.4308   -19.3629 C.2     
 120 O120          -4.7707    -6.3234   -19.3669 O.2     
 121 C121          11.9103   -14.1797   -22.6255 C.3     
 122 C122          11.0311   -12.9485   -22.3973 C.3     
 123 C123           9.5804   -13.3888   -22.1915 C.3     
 124 C124           8.7012   -12.1576   -21.9633 C.3     
 125 C125           7.2505   -12.5979   -21.7575 C.3     
 126 C126           6.3713   -11.3667   -21.5293 C.3     
 127 C127           4.9205   -11.8071   -21.3236 C.3     
 128 C128           4.0413   -10.5759   -21.0954 C.3     
 129 C129           2.5906   -11.0162   -20.8896 C.3     
 130 C130           1.7114    -9.7850   -20.6614 C.3     
 131 C131           0.2607   -10.2253   -20.4556 C.3     
 132 C132          -0.6185    -8.9941   -20.2274 C.3     
 133 C133          -2.0693    -9.4344   -20.0217 C.3     
 134 C134          -2.9484    -8.2032   -19.7935 C.3     
 135 C135          -4.3992    -8.6435   -19.5877 C.3     
 136 H136          -6.9846    -8.4626   -19.1543 H       
 137 H137          -6.8696    -5.6492   -18.3800 H       
 138 H138          -8.3369    -6.5908   -20.8839 H       
 139 H139          -8.5507    -4.9935   -20.1282 H       
 140 H140          -6.7538    -6.3627   -22.9136 H       
 141 H141          -4.5876    -5.0133   -23.3530 H       
 142 H142          -3.9842    -3.5469   -21.3467 H       
 143 H143          -9.4593    -4.9450   -18.1145 H       
 144 H144         -11.0854    -7.2570   -17.3812 H       
 145 H145         -10.1556    -5.2324   -15.2948 H       
 146 H146         -11.3519    -6.5231   -15.0277 H       
 147 H147          -9.6573    -6.9391   -15.3793 H       
 148 H148         -13.2431    -6.1785   -16.1796 H       
 149 H149         -13.7620    -3.4954   -17.2090 H       
 150 H150         -15.7750    -4.2789   -18.5014 H       
 151 H151         -13.1509    -5.5187   -19.4404 H       
 152 H152         -14.5113    -4.9968   -20.4628 H       
 153 H153         -13.5493    -3.7893   -19.5769 H       
 154 H154         -16.0420    -6.4619   -17.3562 H       
 155 H155         -15.8883    -6.6784   -19.1163 H       
 156 H156         -14.5010    -7.0162   -18.0535 H       
 157 H157         -16.1767    -2.8675   -16.5520 H       
 158 H158         -17.3410    -4.6462   -14.5499 H       
 159 H159         -16.3011    -1.8646   -13.8496 H       
 160 H160         -17.3708    -2.8349   -12.8091 H       
 161 H161         -13.8711    -2.0735   -12.9954 H       
 162 H162         -12.4604    -4.0378   -12.0696 H       
 163 H163         -13.8462    -6.1810   -11.9083 H       
 164 H164         -19.4138    -3.2385   -13.5577 H       
 165 H165         -20.4449    -1.3756   -15.5562 H       
 166 H166         -22.4648    -2.7385   -16.0157 H       
 167 H167         -20.9897    -3.5857   -16.5398 H       
 168 H168         -21.7983    -4.0598   -15.0267 H       
 169 H169         -22.9904    -0.9403   -14.7859 H       
 170 H170         -23.2648    -1.2762   -11.8981 H       
 171 H171         -22.9178     1.4644   -13.1934 H       
 172 H172         -23.4877     1.1988   -11.5282 H       
 173 H173         -20.6212     0.9865   -13.8118 H       
 174 H174         -18.2889     0.7949   -13.0486 H       
 175 H175         -17.1427     1.1993   -10.3076 H       
 176 H176         -19.6574     0.1579    -9.0503 H       
 177 H177         -21.9867     0.3604    -9.8199 H       
 178 H178         -25.4405     0.1881   -11.2779 H       
 179 H179         -27.2670     0.3336   -13.5518 H       
 180 H180         -27.6499    -1.6673   -11.2805 H       
 181 H181         -28.9025    -1.2369   -12.4697 H       
 182 H182         -27.4207    -1.9987   -14.3061 H       
 183 H183         -26.1682    -2.4292   -13.1169 H       
 184 H184         -27.7273    -4.0405   -12.0579 H       
 185 H185         -28.9798    -3.6101   -13.2471 H       
 186 H186         -26.6551    -4.3929   -14.6469 H       
 187 H187         -27.6047    -7.7480   -14.8611 H       
 188 H188         -29.1392    -5.7191   -12.5105 H       
 189 H189         -29.0816    -7.2776   -13.1353 H       
 190 H190         -29.6635     0.8407   -12.4282 H       
 191 H191         -29.3363     2.2825    -9.9099 H       
 192 H192         -30.0560     3.7319   -12.4979 H       
 193 H193         -30.0838     4.4444   -10.8670 H       
 194 H194         -28.5399     3.9271   -11.5861 H       
 195 H195         -31.6887     3.5554    -9.5801 H       
 196 H196         -33.8476     2.0851   -10.8858 H       
 197 H197         -33.2755     1.8282    -7.8999 H       
 198 H198         -34.7826     1.3040    -8.6886 H       
 199 H199         -33.4873    -0.2287   -10.1452 H       
 200 H200         -31.9802     0.2955    -9.3565 H       
 201 H201         -32.8357    -0.5229    -7.1777 H       
 202 H202         -34.3428    -1.0471    -7.9664 H       
 203 H203         -32.1687    -2.2338    -9.3235 H       
 204 H204         -32.1906    -5.1239    -7.3608 H       
 205 H205         -33.7928    -2.2874    -6.1845 H       
 206 H206         -33.4209    -3.8873    -5.8317 H       
 207 H207         -36.0620     2.8794    -9.5710 H       
 208 H208         -35.7129     5.5730    -8.4986 H       
 209 H209         -37.1567     5.0436   -11.1337 H       
 210 H210         -37.2493     6.5680   -10.2195 H       
 211 H211         -34.7895     6.8252   -10.3991 H       
 212 H212         -34.6969     5.3007   -11.3133 H       
 213 H213         -36.1569     6.2657   -13.0701 H       
 214 H214         -36.2495     7.7901   -12.1558 H       
 215 H215         -33.5267     7.1661   -12.5723 H       
 216 H216         -35.5600     8.8459   -15.5792 H       
 217 H217         -32.3779     8.2898   -14.3296 H       
 218 H218         -33.2449     8.9909   -15.5864 H       
 219 H219         -38.2661     6.4932    -8.3005 H       
 220 H220         -40.0049     4.2466    -7.5805 H       
 221 H221         -38.4709     4.5868    -5.6150 H       
 222 H222         -39.0587     6.2627    -5.4956 H       
 223 H223         -41.4054     5.3493    -5.2863 H       
 224 H224         -39.8728     2.7174    -5.1063 H       
 225 H225         -41.5851     2.9202    -4.6645 H       
 226 H226         -41.0646     3.1715    -6.3480 H       
 227 H227         -40.0784     6.0000    -3.2952 H       
 228 H228         -41.1218     4.6027    -2.9388 H       
 229 H229         -39.3814     4.3637    -3.2250 H       
 230 H230         -42.2426     5.1314    -6.8608 H       
 231 H231         -42.6802     7.9333    -7.5998 H       
 232 H232         -42.7051     6.6651    -9.7626 H       
 233 H233         -44.0130     5.6454    -9.1164 H       
 234 H234         -45.3795     7.7275    -8.7501 H       
 235 H235         -44.6063     9.7916    -9.9614 H       
 236 H236         -43.5657     9.3594    -8.5835 H       
 237 H237         -43.0405     8.9938   -10.2444 H       
 238 H238         -45.6525     6.3517   -10.7949 H       
 239 H239         -45.8990     8.0785   -11.1491 H       
 240 H240         -44.3682     7.2879   -11.5963 H       
 241 H241         -45.0707     8.5460    -7.1412 H       
 242 H242         -46.5042     6.6260    -5.4720 H       
 243 H243         -46.4289     8.0085    -3.4531 H       
 244 H244         -44.7660     7.6138    -3.9505 H       
 245 H245         -45.0280     9.9429    -3.4897 H       
 246 H246         -48.5037     8.0725    -4.3894 H       
 247 H247         -49.7006     9.3582    -6.7222 H       
 248 H248         -50.9951     7.7892    -5.2475 H       
 249 H249         -52.0276    10.6599    -5.2041 H       
 250 H250         -52.0992     9.5818    -6.6186 H       
 251 H251         -53.3728     9.0366    -3.8987 H       
 252 H252         -54.2392     9.5503    -5.3663 H       
 253 H253         -53.4444     7.9585    -5.3132 H       
 254 H254         -51.7166     8.6157    -3.0238 H       
 255 H255         -49.9460     8.4506    -3.1003 H       
 256 H256         -50.6962    10.0596    -3.2294 H       
 257 H257         -50.1316    12.6484    -5.1605 H       
 258 H258          11.8494   -14.8357   -21.7571 H       
 259 H259          11.5640   -14.7146   -23.5098 H       
 260 H260          12.9439   -13.8660   -22.7721 H       
 261 H261          11.3774   -12.4136   -21.5129 H       
 262 H262          11.0921   -12.2926   -23.2657 H       
 263 H263           9.2341   -13.9237   -23.0759 H       
 264 H264           9.5195   -14.0448   -21.3231 H       
 265 H265           9.0475   -11.6228   -21.0789 H       
 266 H266           8.7621   -11.5017   -22.8317 H       
 267 H267           6.9042   -13.1328   -22.6419 H       
 268 H268           7.1895   -13.2539   -20.8891 H       
 269 H269           6.7176   -10.8319   -20.6450 H       
 270 H270           6.4322   -10.7108   -22.3977 H       
 271 H271           4.5742   -12.3419   -22.2079 H       
 272 H272           4.8596   -12.4630   -20.4552 H       
 273 H273           4.3876   -10.0410   -20.2110 H       
 274 H274           4.1023    -9.9199   -21.9638 H       
 275 H275           2.2443   -11.5510   -21.7740 H       
 276 H276           2.5297   -11.6721   -20.0212 H       
 277 H277           2.0577    -9.2501   -19.7770 H       
 278 H278           1.7723    -9.1290   -21.5298 H       
 279 H279          -0.0856   -10.7602   -21.3400 H       
 280 H280           0.1998   -10.8812   -19.5872 H       
 281 H281          -0.2722    -8.4592   -19.3431 H       
 282 H282          -0.5576    -8.3381   -21.0958 H       
 283 H283          -2.4155    -9.9693   -20.9060 H       
 284 H284          -2.1302   -10.0904   -19.1533 H       
 285 H285          -2.6022    -7.6683   -18.9091 H       
 286 H286          -2.8875    -7.5472   -20.6619 H       
 287 H287          -4.4601    -9.2995   -18.7193 H       
 288 H288          -4.7455    -9.1784   -20.4721 H       
@<TRIPOS>BOND
   1    1    2 2
   2    1    4 1
   3    1   13 am
   4    3  119 am
   5    3    4 1
   6    3  136 1
   7    4    5 1
   8    4  137 1
   9    5    6 1
  10    5  138 1
  11    5  139 1
  12    6    7 2
  13    6   10 1
  14    7    8 1
  15    7  140 1
  16    8    9 1
  17    8  141 1
  18    9   10 2
  19    9  142 1
  20   11   12 2
  21   11   14 1
  22   11   18 am
  23   13   14 1
  24   13  143 1
  25   14   15 1
  26   14  144 1
  27   15  145 1
  28   15  146 1
  29   15  147 1
  30   16   17 2
  31   16   19 1
  32   16   25 am
  33   18   19 1
  34   18  148 1
  35   19   20 1
  36   19  149 1
  37   20   21 1
  38   20   22 1
  39   20  150 1
  40   21  151 1
  41   21  152 1
  42   21  153 1
  43   22  154 1
  44   22  155 1
  45   22  156 1
  46   23   24 2
  47   23   26 1
  48   23   35 am
  49   25   26 1
  50   25  157 1
  51   26   27 1
  52   26  158 1
  53   27   28 1
  54   27  159 1
  55   27  160 1
  56   28   29 2
  57   28   32 1
  58   29   30 1
  59   29  161 1
  60   30   31 1
  61   30  162 1
  62   31   32 2
  63   31  163 1
  64   33   34 2
  65   33   36 1
  66   33   40 am
  67   35   36 1
  68   35  164 1
  69   36   37 1
  70   36  165 1
  71   37  166 1
  72   37  167 1
  73   37  168 1
  74   38   39 2
  75   38   41 1
  76   38   52 am
  77   40   41 1
  78   40  169 1
  79   41   42 1
  80   41  170 1
  81   42   43 1
  82   42  171 1
  83   42  172 1
  84   43   44 ar
  85   43   49 ar
  86   44   45 ar
  87   44  173 1
  88   45   46 ar
  89   45  174 1
  90   46   47 1
  91   46   48 ar
  92   47  175 1
  93   48   49 ar
  94   48  176 1
  95   49  177 1
  96   50   51 2
  97   50   53 1
  98   50   63 am
  99   52   53 1
 100   52  178 1
 101   53   54 1
 102   53  179 1
 103   54   55 1
 104   54  180 1
 105   54  181 1
 106   55   56 1
 107   55  182 1
 108   55  183 1
 109   56   57 1
 110   56  184 1
 111   56  185 1
 112   57   58 1
 113   57  186 1
 114   58   59 2
 115   58   60 1
 116   59  187 1
 117   60  188 1
 118   60  189 1
 119   61   62 2
 120   61   64 1
 121   61   68 am
 122   63   64 1
 123   63  190 1
 124   64   65 1
 125   64  191 1
 126   65  192 1
 127   65  193 1
 128   65  194 1
 129   66   67 2
 130   66   69 1
 131   66   79 am
 132   68   69 1
 133   68  195 1
 134   69   70 1
 135   69  196 1
 136   70   71 1
 137   70  197 1
 138   70  198 1
 139   71   72 1
 140   71  199 1
 141   71  200 1
 142   72   73 1
 143   72  201 1
 144   72  202 1
 145   73   74 1
 146   73  203 1
 147   74   75 2
 148   74   76 1
 149   75  204 1
 150   76  205 1
 151   76  206 1
 152   77   78 2
 153   77   80 1
 154   77   90 am
 155   79   80 1
 156   79  207 1
 157   80   81 1
 158   80  208 1
 159   81   82 1
 160   81  209 1
 161   81  210 1
 162   82   83 1
 163   82  211 1
 164   82  212 1
 165   83   84 1
 166   83  213 1
 167   83  214 1
 168   84   85 1
 169   84  215 1
 170   85   86 2
 171   85   87 1
 172   86  216 1
 173   87  217 1
 174   87  218 1
 175   88   89 2
 176   88   91 1
 177   88   98 am
 178   90   91 1
 179   90  219 1
 180   91   92 1
 181   91  220 1
 182   92   93 1
 183   92  221 1
 184   92  222 1
 185   93   94 1
 186   93   95 1
 187   93  223 1
 188   94  224 1
 189   94  225 1
 190   94  226 1
 191   95  227 1
 192   95  228 1
 193   95  229 1
 194   96   97 2
 195   96   99 1
 196   96  106 am
 197   98   99 1
 198   98  230 1
 199   99  100 1
 200   99  231 1
 201  100  101 1
 202  100  232 1
 203  100  233 1
 204  101  102 1
 205  101  103 1
 206  101  234 1
 207  102  235 1
 208  102  236 1
 209  102  237 1
 210  103  238 1
 211  103  239 1
 212  103  240 1
 213  104  105 2
 214  104  107 1
 215  104  112 am
 216  106  107 1
 217  106  241 1
 218  107  108 1
 219  107  242 1
 220  108  109 1
 221  108  243 1
 222  108  244 1
 223  109  245 1
 224  110  111 2
 225  110  113 1
 226  110  118 1
 227  112  113 1
 228  112  246 1
 229  113  114 1
 230  113  247 1
 231  114  115 1
 232  114  117 1
 233  114  248 1
 234  115  116 1
 235  115  249 1
 236  115  250 1
 237  116  251 1
 238  116  252 1
 239  116  253 1
 240  117  254 1
 241  117  255 1
 242  117  256 1
 243  118  257 1
 244  119  120 2
 245  119  135 1
 246  121  122 1
 247  121  258 1
 248  121  259 1
 249  121  260 1
 250  122  123 1
 251  122  261 1
 252  122  262 1
 253  123  124 1
 254  123  263 1
 255  123  264 1
 256  124  125 1
 257  124  265 1
 258  124  266 1
 259  125  126 1
 260  125  267 1
 261  125  268 1
 262  126  127 1
 263  126  269 1
 264  126  270 1
 265  127  128 1
 266  127  271 1
 267  127  272 1
 268  128  129 1
 269  128  273 1
 270  128  274 1
 271  129  130 1
 272  129  275 1
 273  129  276 1
 274  130  131 1
 275  130  277 1
 276  130  278 1
 277  131  132 1
 278  131  279 1
 279  131  280 1
 280  132  133 1
 281  132  281 1
 282  132  282 1
 283  133  134 1
 284  133  283 1
 285  133  284 1
 286  134  135 1
 287  134  285 1
 288  134  286 1
 289  135  287 1
 290  135  288 1

#	End of record

