#	Name: ASD02690023
#	Creating user name:	WinNT
#	Creation time:	15. 06. 2019 20:26

#	Modifying user name:	WinNT
#	Modification time:	15. 06. 2019 20:26

#	Program:	/corina/corina34_cracker 3.40 0067  02.08.2006

@<TRIPOS>MOLECULE
ASD02690023
  62   64    0    0    0
SMALL
NO_CHARGES


@<TRIPOS>ATOM
   1 C1            -0.4830     1.8382    -0.9440 C.3     
   2 N2            -0.3713     0.4042    -0.6482 N.3     
   3 C3             0.4364    -0.2857    -1.6621 C.3     
   4 C4             1.8554     0.2874    -1.6623 C.3     
   5 C5             1.7949     1.7871    -1.9650 C.3     
   6 C6             0.9085     2.4748    -0.9229 C.3     
   7 C7             4.7895     4.1337    -2.6101 C.ar    
   8 C8             3.5007     3.5908    -2.6613 C.ar    
   9 C9             3.1838     2.3690    -1.9076 C.2     
  10 C10            5.0797     5.2790    -3.3183 C.ar    
  11 C11            4.0975     5.8943    -4.0806 C.ar    
  12 C12            2.8181     5.3611    -4.1360 C.ar    
  13 C13            2.5147     4.2163    -3.4326 C.ar    
  14 C14           -1.6987    -0.2126    -0.5235 C.3     
  15 C15           -1.5427    -1.7175    -0.2833 C.3     
  16 N16           -2.8695    -2.2962    -0.0317 N.am    
  17 C17           -3.7078    -1.7096     1.0227 C.3     
  18 C18           -3.8395    -0.2048     0.7679 C.3     
  19 C19           -2.4441     0.4139     0.6572 C.3     
  20 C20           -3.3095    -3.3450    -0.7548 C.2     
  21 C21           -4.5891    -3.9786    -0.4233 C.2     
  22 S22           -5.3504    -3.9718     1.1616 S.3     
  23 O23           -1.7176     0.1686     1.8631 O.3     
  24 O24            4.0402     1.8293    -1.2396 O.2     
  25 F25            4.3884     7.0179    -4.7721 F       
  26 C26           -5.3843    -4.6642    -1.2979 C.2     
  27 C27           -6.5310    -5.1551    -0.7200 C.2     
  28 C28           -6.6730    -4.8804     0.5820 C.2     
  29 O29           -2.6444    -3.7661    -1.6830 O.2     
  30 H30           -0.9287     1.9721    -1.9297 H       
  31 H31           -1.1124     2.3160    -0.1932 H       
  32 H32            0.4749    -1.3506    -1.4327 H       
  33 H33           -0.0135    -0.1420    -2.6444 H       
  34 H34            2.3110     0.1316    -0.6844 H       
  35 H35            2.4503    -0.2142    -2.4256 H       
  36 H36            1.3751     1.9414    -2.9590 H       
  37 H37            0.8269     3.5360    -1.1579 H       
  38 H38            1.3492     2.3534     0.0667 H       
  39 H39            5.5537     3.6583    -2.0131 H       
  40 H40            6.0739     5.6990    -3.2796 H       
  41 H41            2.0581     5.8450    -4.7314 H       
  42 H42            1.5183     3.8021    -3.4766 H       
  43 H43           -2.2643    -0.0472    -1.4405 H       
  44 H44           -1.1014    -2.1842    -1.1639 H       
  45 H45           -0.9011    -1.8848     0.5819 H       
  46 H46           -4.6951    -2.1712     1.0038 H       
  47 H47           -3.2428    -1.8763     1.9943 H       
  48 H48           -4.3855    -0.0395    -0.1610 H       
  49 H49           -4.3783     0.2584     1.5944 H       
  50 H50           -2.5348     1.4887     0.5004 H       
  51 H51           -2.1322     0.5391     2.6543 H       
  52 H52           -5.1367    -4.8062    -2.3395 H       
  53 H53           -7.2644    -5.7198    -1.2764 H       
  54 H54           -7.5133    -5.1912     1.1850 H       
  55 C55           12.3733    16.1292     7.6682 C.1     
  56 C56           12.3892    14.9553     7.6617 C.1     
  57 O57           12.3549    17.4840     7.6756 O.3     
  58 O58           12.4076    13.6005     7.6543 O.3     
  59 O59           13.6886    18.0997     7.6662 O.3     
  60 O60           11.0739    12.9848     7.6637 O.3     
  61 H61           13.6755    19.0666     7.6715 H       
  62 H62           11.0870    12.0179     7.6584 H       
@<TRIPOS>BOND
   1    1    2 1
   2    1    6 1
   3    1   30 1
   4    1   31 1
   5    2    3 1
   6    2   14 1
   7    3    4 1
   8    3   32 1
   9    3   33 1
  10    4    5 1
  11    4   34 1
  12    4   35 1
  13    5    6 1
  14    5    9 1
  15    5   36 1
  16    6   37 1
  17    6   38 1
  18    7    8 ar
  19    7   10 ar
  20    7   39 1
  21    8    9 1
  22    8   13 ar
  23    9   24 2
  24   10   11 ar
  25   10   40 1
  26   11   12 ar
  27   11   25 1
  28   12   13 ar
  29   12   41 1
  30   13   42 1
  31   14   15 1
  32   14   19 1
  33   14   43 1
  34   15   16 1
  35   15   44 1
  36   15   45 1
  37   16   17 1
  38   16   20 am
  39   17   18 1
  40   17   46 1
  41   17   47 1
  42   18   19 1
  43   18   48 1
  44   18   49 1
  45   19   23 1
  46   19   50 1
  47   20   21 1
  48   20   29 2
  49   21   26 2
  50   21   22 1
  51   22   28 1
  52   23   51 1
  53   26   27 1
  54   26   52 1
  55   27   28 2
  56   27   53 1
  57   28   54 1
  58   55   56 3
  59   55   57 1
  60   56   58 1
  61   57   59 1
  62   58   60 1
  63   59   61 1
  64   60   62 1

#	End of record

