#	Name: ASD07300188
#	Creating user name:	WinNT
#	Creation time:	15. 06. 2019 21:09

#	Modifying user name:	WinNT
#	Modification time:	15. 06. 2019 21:09

#	Program:	/corina/corina34_cracker 3.40 0067  02.08.2006

@<TRIPOS>MOLECULE
ASD07300188
  54   59    0    0    0
SMALL
NO_CHARGES


@<TRIPOS>ATOM
   1 C1            -0.0169     1.3940     0.0097 C.ar    
   2 C2             0.0021    -0.0041     0.0020 C.ar    
   3 C3             1.2200    -0.6674    -0.0132 C.ar    
   4 C4             2.3808     0.0923    -0.0202 C.ar    
   5 C5             2.2878     1.4713    -0.0119 C.ar    
   6 N6             1.1160     2.0768     0.0026 N.ar    
   7 C7            -2.1140     0.6621     0.0347 C.2     
   8 N8            -1.3544     1.7733     0.0301 N.am    
   9 N9            -1.3235    -0.4280     0.0124 N.am    
  10 O10           -3.3304     0.6451     0.0519 O.2     
  11 C11           -1.8311     3.0900     0.0441 C.ar    
  12 C12           -3.1993     3.3320     0.0641 C.ar    
  13 C13           -3.6714     4.6271     0.0779 C.ar    
  14 C14           -2.7743     5.6951     0.0722 C.ar    
  15 C15           -1.4014     5.4492     0.0525 C.ar    
  16 C16           -0.9350     4.1520     0.0437 C.ar    
  17 C17           -1.7363     9.0953     2.5910 C.2     
  18 N18           -1.8453     7.9396     2.0020 N.2     
  19 C19           -2.7730     8.0157     1.0166 C.ar    
  20 C20           -3.2632     9.3312     1.0141 C.ar    
  21 N21           -2.5877     9.9908     2.0221 N.pl3   
  22 C22           -3.2786     7.0882     0.0865 C.ar    
  23 C23           -4.2535     7.4885    -0.8182 C.ar    
  24 C24           -4.7262     8.7899    -0.8079 C.ar    
  25 C25           -4.2376     9.7075     0.0995 C.ar    
  26 C26           -0.8076     9.3955     3.7392 C.3     
  27 C27           -2.7571    11.3940     2.4074 C.3     
  28 C28           -1.8033    12.2510     1.6156 C.ar    
  29 C29           -2.1948    12.7783     0.3992 C.ar    
  30 C30           -1.3199    13.5643    -0.3271 C.ar    
  31 C31           -0.0537    13.8235     0.1631 C.ar    
  32 C32            0.3375    13.2969     1.3799 C.ar    
  33 C33           -0.5389    12.5145     2.1083 C.ar    
  34 H34            1.2635    -1.7465    -0.0190 H       
  35 H35            3.3476    -0.3890    -0.0316 H       
  36 H36            3.1908     2.0638    -0.0173 H       
  37 H37           -1.6258    -1.3496     0.0100 H       
  38 H38           -3.8935     2.5047     0.0686 H       
  39 H39           -4.7349     4.8146     0.0928 H       
  40 H40           -0.7045     6.2743     0.0480 H       
  41 H41            0.1280     3.9610     0.0326 H       
  42 H42           -4.6449     6.7808    -1.5340 H       
  43 H43           -5.4839     9.0896    -1.5168 H       
  44 H44           -4.6143    10.7197     0.0987 H       
  45 H45            0.1515     9.7380     3.3508 H       
  46 H46           -1.2444    10.1730     4.3660 H       
  47 H47           -0.6583     8.4927     4.3314 H       
  48 H48           -3.7813    11.7059     2.2028 H       
  49 H49           -2.5487    11.5063     3.4714 H       
  50 H50           -3.1841    12.5758     0.0162 H       
  51 H51           -1.6256    13.9757    -1.2778 H       
  52 H52            0.6301    14.4370    -0.4047 H       
  53 H53            1.3269    13.4991     1.7628 H       
  54 H54           -0.2346    12.1061     3.0607 H       
@<TRIPOS>BOND
   1    1    2 ar
   2    1    6 ar
   3    1    8 1
   4    2    3 ar
   5    2    9 1
   6    3    4 ar
   7    3   34 1
   8    4    5 ar
   9    4   35 1
  10    5    6 ar
  11    5   36 1
  12    7    8 am
  13    7    9 am
  14    7   10 2
  15    8   11 1
  16    9   37 1
  17   11   12 ar
  18   11   16 ar
  19   12   13 ar
  20   12   38 1
  21   13   14 ar
  22   13   39 1
  23   14   15 ar
  24   14   22 1
  25   15   16 ar
  26   15   40 1
  27   16   41 1
  28   17   18 2
  29   17   21 1
  30   17   26 1
  31   18   19 1
  32   19   20 ar
  33   19   22 ar
  34   20   21 1
  35   20   25 ar
  36   21   27 1
  37   22   23 ar
  38   23   24 ar
  39   23   42 1
  40   24   25 ar
  41   24   43 1
  42   25   44 1
  43   26   45 1
  44   26   46 1
  45   26   47 1
  46   27   28 1
  47   27   48 1
  48   27   49 1
  49   28   29 ar
  50   28   33 ar
  51   29   30 ar
  52   29   50 1
  53   30   31 ar
  54   30   51 1
  55   31   32 ar
  56   31   52 1
  57   32   33 ar
  58   32   53 1
  59   33   54 1

#	End of record

