#	Name: ASD01810530
#	Creating user name:	WinNT
#	Creation time:	15. 06. 2019 19:24

#	Modifying user name:	WinNT
#	Modification time:	15. 06. 2019 19:24

#	Program:	/corina/corina34_cracker 3.40 0067  02.08.2006

@<TRIPOS>MOLECULE
ASD01810530
  85   89    0    0    0
SMALL
NO_CHARGES


@<TRIPOS>ATOM
   1 S1             1.6258     1.9622    -0.6783 S.3     
   2 C2             2.3821     0.6865     0.3981 C.3     
   3 N3             1.3386    -0.3330     0.5112 N.am    
   4 C4             0.1005     0.0060     0.1632 C.2     
   5 C5            -0.0971     1.4306    -0.3174 C.3     
   6 C6             3.6321     0.1253    -0.2678 C.3     
   7 C7             4.2924    -0.8916     0.6683 C.3     
   8 N8             4.6170    -0.2415     1.9446 N.3     
   9 C9             3.4057     0.2340     2.6253 C.3     
  10 C10            2.7143     1.2897     1.7570 C.3     
  11 C11           -0.9541     1.4640    -1.5844 C.3     
  12 C12           -1.2373     2.9172    -1.9703 C.3     
  13 O13           -0.8199    -0.7813     0.2263 O.2     
  14 C14            1.6473    -1.6819     0.9923 C.3     
  15 N15            5.4374   -11.5403    -2.8099 N.3     
  16 C16            6.0922   -12.7709    -2.3480 C.3     
  17 C17            6.6106   -13.5578    -3.5539 C.3     
  18 C18            5.4379   -13.8975    -4.4780 C.3     
  19 C19            4.7435   -12.6016    -4.9058 C.3     
  20 C20            4.2793   -11.8423    -3.6608 C.3     
  21 N21            5.9360   -14.6003    -5.6629 N.am    
  22 C22            5.5719   -15.8840    -6.0624 C.ar    
  23 C23            6.8193   -14.1131    -6.5547 C.2     
  24 N24            7.0474   -15.0299    -7.5140 N.am    
  25 C25            6.2784   -16.1573    -7.2353 C.ar    
  26 C26            6.1177   -17.3800    -7.8692 C.ar    
  27 C27            5.2596   -18.3225    -7.3374 C.ar    
  28 C28            4.5589   -18.0514    -6.1746 C.ar    
  29 C29            4.7105   -16.8355    -5.5376 C.ar    
  30 O30            7.3335   -13.0115    -6.5017 O.2     
  31 C31            2.0511    -2.5650    -0.1900 C.3     
  32 C32            2.4979    -3.9345     0.3256 C.3     
  33 C33            2.9017    -4.8176    -0.8568 C.3     
  34 C34            3.3485    -6.1871    -0.3412 C.3     
  35 C35            3.7523    -7.0703    -1.5235 C.3     
  36 C36            4.1991    -8.4397    -1.0079 C.3     
  37 C37            4.6029    -9.3229    -2.1903 C.3     
  38 C38            5.0497   -10.6924    -1.6747 C.3     
  39 H39           -0.5372     2.0469     0.4665 H       
  40 H40            3.3576    -0.3649    -1.2019 H       
  41 H41            4.3300     0.9368    -0.4739 H       
  42 H42            3.6071    -1.7202     0.8464 H       
  43 H43            5.2066    -1.2680     0.2093 H       
  44 H44            5.1477    -0.8592     2.5403 H       
  45 H45            2.7276    -0.6038     2.7879 H       
  46 H46            3.6770     0.6737     3.5850 H       
  47 H47            3.3792     2.1430     1.6234 H       
  48 H48            1.7957     1.6166     2.2442 H       
  49 H49           -0.4213     0.9696    -2.3966 H       
  50 H50           -1.8958     0.9470    -1.3998 H       
  51 H51           -0.2956     3.4342    -2.1548 H       
  52 H52           -1.8478     2.9411    -2.8729 H       
  53 H53           -1.7701     3.4117    -1.1580 H       
  54 H54            2.4689    -1.6336     1.7070 H       
  55 H55            0.7677    -2.1046     1.4778 H       
  56 H56            6.9268   -12.5151    -1.6952 H       
  57 H57            5.3746   -13.3798    -1.7982 H       
  58 H58            7.3386   -12.9547    -4.0964 H       
  59 H59            7.0828   -14.4787    -3.2117 H       
  60 H60            4.7286   -14.5329    -3.9478 H       
  61 H61            5.4422   -11.9834    -5.4696 H       
  62 H62            3.8818   -12.8393    -5.5295 H       
  63 H63            3.5702   -12.4556    -3.1048 H       
  64 H64            3.7971   -10.9122    -3.9614 H       
  65 H65            7.6436   -14.9225    -8.2716 H       
  66 H66            6.6622   -17.5948    -8.7769 H       
  67 H67            5.1344   -19.2749    -7.8310 H       
  68 H68            3.8894   -18.7933    -5.7650 H       
  69 H69            4.1622   -16.6276    -4.6306 H       
  70 H70            1.1992    -2.6888    -0.8587 H       
  71 H71            2.8723    -2.0948    -0.7310 H       
  72 H72            3.3498    -3.8107     0.9942 H       
  73 H73            1.6767    -4.4047     0.8665 H       
  74 H74            2.0498    -4.9414    -1.5254 H       
  75 H75            3.7229    -4.3474    -1.3977 H       
  76 H76            4.2004    -6.0634     0.3275 H       
  77 H77            2.5273    -6.6573     0.1998 H       
  78 H78            2.9004    -7.1940    -2.1922 H       
  79 H79            4.5735    -6.6001    -2.0645 H       
  80 H80            5.0510    -8.3160    -0.3393 H       
  81 H81            3.3779    -8.9099    -0.4670 H       
  82 H82            3.7510    -9.4467    -2.8589 H       
  83 H83            5.4241    -8.8527    -2.7312 H       
  84 H84            4.2285   -11.1626    -1.1337 H       
  85 H85            5.9016   -10.5686    -1.0060 H       
@<TRIPOS>BOND
   1    1    2 1
   2    1    5 1
   3    2    3 1
   4    2    6 1
   5    2   10 1
   6    3    4 am
   7    3   14 1
   8    4    5 1
   9    4   13 2
  10    5   11 1
  11    5   39 1
  12    6    7 1
  13    6   40 1
  14    6   41 1
  15    7    8 1
  16    7   42 1
  17    7   43 1
  18    8    9 1
  19    8   44 1
  20    9   10 1
  21    9   45 1
  22    9   46 1
  23   10   47 1
  24   10   48 1
  25   11   12 1
  26   11   49 1
  27   11   50 1
  28   12   51 1
  29   12   52 1
  30   12   53 1
  31   14   31 1
  32   14   54 1
  33   14   55 1
  34   15   38 1
  35   15   16 1
  36   15   20 1
  37   16   17 1
  38   16   56 1
  39   16   57 1
  40   17   18 1
  41   17   58 1
  42   17   59 1
  43   18   19 1
  44   18   21 1
  45   18   60 1
  46   19   20 1
  47   19   61 1
  48   19   62 1
  49   20   63 1
  50   20   64 1
  51   21   22 1
  52   21   23 am
  53   22   25 ar
  54   22   29 ar
  55   23   24 am
  56   23   30 2
  57   24   25 1
  58   24   65 1
  59   25   26 ar
  60   26   27 ar
  61   26   66 1
  62   27   28 ar
  63   27   67 1
  64   28   29 ar
  65   28   68 1
  66   29   69 1
  67   31   32 1
  68   31   70 1
  69   31   71 1
  70   32   33 1
  71   32   72 1
  72   32   73 1
  73   33   34 1
  74   33   74 1
  75   33   75 1
  76   34   35 1
  77   34   76 1
  78   34   77 1
  79   35   36 1
  80   35   78 1
  81   35   79 1
  82   36   37 1
  83   36   80 1
  84   36   81 1
  85   37   38 1
  86   37   82 1
  87   37   83 1
  88   38   84 1
  89   38   85 1

#	End of record

