#	Name: ASD01870626
#	Creating user name:	WinNT
#	Creation time:	15. 06. 2019 19:39

#	Modifying user name:	WinNT
#	Modification time:	15. 06. 2019 19:39

#	Program:	/corina/corina34_cracker 3.40 0067  02.08.2006

@<TRIPOS>MOLECULE
ASD01870626
  43   46    0    0    0
SMALL
NO_CHARGES


@<TRIPOS>ATOM
   1 C1             0.0198     1.3534    -0.0708 C.ar    
   2 C2             0.0457    -0.0326    -0.0809 C.ar    
   3 C3             1.2501    -0.7109    -0.0827 C.ar    
   4 C4             2.4488    -0.0147    -0.0749 C.ar    
   5 C5             2.4384     1.3709    -0.0652 C.ar    
   6 C6             1.2100     2.0626    -0.0629 C.ar    
   7 C7             3.4883     2.4112    -0.0554 C.2     
   8 N8             2.8953     3.6187    -0.0484 N.am    
   9 C9             1.5554     3.4998    -0.0517 C.2     
  10 C10            3.5838     4.8411    -0.0378 C.ar    
  11 C11            2.8767     6.0357    -0.0312 C.ar    
  12 C12            3.5540     7.2388    -0.0212 C.ar    
  13 C13            4.9426     7.2538    -0.0173 C.ar    
  14 C14            5.6499     6.0581    -0.0234 C.ar    
  15 C15            4.9723     4.8557    -0.0281 C.ar    
  16 O16            0.7621     4.4194    -0.0471 O.2     
  17 O17            4.6860     2.2096    -0.0536 O.2     
  18 N18            5.6294     8.4733    -0.0076 N.am    
  19 C19            6.8000     8.5822     0.6515 C.2     
  20 C20            7.5800     9.8204     0.5607 C.2     
  21 O21            7.2096     7.6528     1.3221 O.2     
  22 C22            8.7757    10.0625     1.1744 C.2     
  23 C23            9.1585    11.3638     0.8133 C.2     
  24 C24            8.1921    11.8528     0.0053 C.2     
  25 O25            7.2451    10.9181    -0.1486 O.3     
  26 C26            9.5366     9.1161     2.0668 C.3     
  27 C27            2.7863     8.5356    -0.0150 C.3     
  28 F28            1.4138     8.2651    -0.0211 F       
  29 F29            3.1128     9.2653     1.1331 F       
  30 F30            3.1199     9.2803    -1.1514 F       
  31 H31           -0.9242     1.8781    -0.0735 H       
  32 H32           -0.8815    -0.5863    -0.0870 H       
  33 H33            1.2573    -1.7908    -0.0898 H       
  34 H34            3.3868    -0.5499    -0.0760 H       
  35 H35            1.7968     6.0240    -0.0343 H       
  36 H36            6.7298     6.0695    -0.0207 H       
  37 H37            5.5221     3.9261    -0.0288 H       
  38 H38            5.2630     9.2400    -0.4752 H       
  39 H39           10.0563    11.8777     1.1235 H       
  40 H40            8.1861    12.8343    -0.4454 H       
  41 H41           10.2160     8.5144     1.4631 H       
  42 H42           10.1090     9.6871     2.7979 H       
  43 H43            8.8351     8.4622     2.5850 H       
@<TRIPOS>BOND
   1    1    2 ar
   2    1    6 ar
   3    1   31 1
   4    2    3 ar
   5    2   32 1
   6    3    4 ar
   7    3   33 1
   8    4    5 ar
   9    4   34 1
  10    5    7 1
  11    5    6 ar
  12    6    9 1
  13    7    8 am
  14    7   17 2
  15    8    9 am
  16    8   10 1
  17    9   16 2
  18   10   11 ar
  19   10   15 ar
  20   11   12 ar
  21   11   35 1
  22   12   13 ar
  23   12   27 1
  24   13   14 ar
  25   13   18 1
  26   14   15 ar
  27   14   36 1
  28   15   37 1
  29   18   19 am
  30   18   38 1
  31   19   20 1
  32   19   21 2
  33   20   22 2
  34   20   25 1
  35   22   23 1
  36   22   26 1
  37   23   24 2
  38   23   39 1
  39   24   25 1
  40   24   40 1
  41   26   41 1
  42   26   42 1
  43   26   43 1
  44   27   28 1
  45   27   29 1
  46   27   30 1

#	End of record

