#	Name: ASD03740272
#	Creating user name:	WinNT
#	Creation time:	15. 06. 2019 20:47

#	Modifying user name:	WinNT
#	Modification time:	15. 06. 2019 20:47

#	Program:	/corina/corina34_cracker 3.40 0067  02.08.2006

@<TRIPOS>MOLECULE
ASD03740272
  58   61    0    0    0
SMALL
NO_CHARGES


@<TRIPOS>ATOM
   1 C1            -0.4930     0.9243    -0.1346 C.ar    
   2 C2            -0.2357    -0.4083    -0.4073 C.ar    
   3 C3             1.0623    -0.8822    -0.4130 C.ar    
   4 C4             2.1165    -0.0237    -0.1449 C.ar    
   5 C5             1.8603     1.3259     0.1312 C.ar    
   6 C6             0.5447     1.7922     0.1338 C.ar    
   7 C7             2.9757     2.2496     0.4182 C.2     
   8 N8             2.8507     3.5370     0.6233 N.2     
   9 C9             4.0807     4.0635     0.8567 C.ar    
  10 C10            4.9954     3.0007     0.7821 C.ar    
  11 O11            4.2700     1.8909     0.5132 O.3     
  12 C12            6.3472     3.2364     0.9794 C.ar    
  13 C13            6.7923     4.5134     1.2485 C.ar    
  14 C14            5.8912     5.5733     1.3242 C.ar    
  15 C15            4.5396     5.3542     1.1298 C.ar    
  16 N16            6.3553     6.8641     1.5984 N.am    
  17 S17            7.6954     7.4453     0.8182 S.o2    
  18 O18            7.8782     8.7470     1.3579 O.2     
  19 O19            8.6747     6.4320     1.0015 O.2     
  20 C20            7.1985     7.5425    -0.9237 C.3     
  21 O21            3.3920    -0.4883    -0.1493 O.3     
  22 C22            4.1670    -0.2452    -1.3250 C.3     
  23 C23            1.3318    -2.3348    -0.7106 C.3     
  24 C24            0.0038    -3.0806    -0.8554 C.3     
  25 C25            2.1259    -2.4496    -2.0133 C.3     
  26 C26            2.1393    -2.9488     0.4348 C.3     
  27 C27           -1.9126     1.4301    -0.1371 C.3     
  28 C28           -2.2165     1.9808     1.2416 C.2     
  29 O29           -2.1186     1.2798     2.2283 O.2     
  30 N30           -2.5962     3.2611     1.3428 N.2     
  31 C31           -2.7126     4.0436     0.3047 C.2     
  32 C32           -2.4574     3.6420    -1.0202 C.2     
  33 C33           -2.0667     2.3896    -1.3013 C.2     
  34 H34           -1.0540    -1.0814    -0.6165 H       
  35 H35            0.3396     2.8311     0.3458 H       
  36 H36            7.0517     2.4198     0.9226 H       
  37 H37            7.8461     4.6931     1.4020 H       
  38 H38            3.8424     6.1769     1.1892 H       
  39 H39            5.8922     7.4188     2.2455 H       
  40 H40            6.3468     8.2157    -1.0215 H       
  41 H41            8.0303     7.9202    -1.5183 H       
  42 H42            6.9198     6.5501    -1.2780 H       
  43 H43            3.6074    -0.5690    -2.2025 H       
  44 H44            4.3823     0.8204    -1.4043 H       
  45 H45            5.1025    -0.8014    -1.2650 H       
  46 H46           -0.5715    -2.6432    -1.6714 H       
  47 H47            0.1987    -4.1312    -1.0707 H       
  48 H48           -0.5620    -2.9988     0.0727 H       
  49 H49            3.1496    -2.1150    -1.8455 H       
  50 H50            2.1328    -3.4881    -2.3443 H       
  51 H51            1.6611    -1.8276    -2.7782 H       
  52 H52            1.5736    -2.8669     1.3628 H       
  53 H53            2.3342    -3.9994     0.2195 H       
  54 H54            3.0854    -2.4174     0.5379 H       
  55 H55           -2.5706     0.5791    -0.3128 H       
  56 H56           -3.0248     5.0637     0.4728 H       
  57 H57           -2.5780     4.3537    -1.8235 H       
  58 H58           -1.8695     2.0773    -2.3162 H       
@<TRIPOS>BOND
   1    1    2 ar
   2    1    6 ar
   3    1   27 1
   4    2    3 ar
   5    2   34 1
   6    3    4 ar
   7    3   23 1
   8    4    5 ar
   9    4   21 1
  10    5    6 ar
  11    5    7 1
  12    6   35 1
  13    7    8 2
  14    7   11 1
  15    8    9 1
  16    9   10 ar
  17    9   15 ar
  18   10   11 1
  19   10   12 ar
  20   12   13 ar
  21   12   36 1
  22   13   14 ar
  23   13   37 1
  24   14   15 ar
  25   14   16 1
  26   15   38 1
  27   16   17 am
  28   16   39 1
  29   17   18 2
  30   17   19 2
  31   17   20 1
  32   20   40 1
  33   20   41 1
  34   20   42 1
  35   21   22 1
  36   22   43 1
  37   22   44 1
  38   22   45 1
  39   23   24 1
  40   23   25 1
  41   23   26 1
  42   24   46 1
  43   24   47 1
  44   24   48 1
  45   25   49 1
  46   25   50 1
  47   25   51 1
  48   26   52 1
  49   26   53 1
  50   26   54 1
  51   27   28 1
  52   27   33 1
  53   27   55 1
  54   28   29 2
  55   28   30 1
  56   30   31 2
  57   31   32 1
  58   31   56 1
  59   32   33 2
  60   32   57 1
  61   33   58 1

#	End of record

