#	Name: ASD03331492
#	Creating user name:	WinNT
#	Creation time:	15. 06. 2019 20:39

#	Modifying user name:	WinNT
#	Modification time:	15. 06. 2019 20:39

#	Program:	/corina/corina34_cracker 3.40 0067  02.08.2006

@<TRIPOS>MOLECULE
ASD03331492
  58   60    0    0    0
SMALL
NO_CHARGES


@<TRIPOS>ATOM
   1 C1            -0.6941     1.0273    -1.9252 C.ar    
   2 C2            -0.4871    -0.4178    -1.6865 C.2     
   3 N3            -1.4719    -1.3370    -1.4611 N.pl3   
   4 C4            -0.8680    -2.5404    -1.2770 C.2     
   5 C5             0.4731    -2.3424    -1.4080 C.2     
   6 N6             0.6727    -1.0307    -1.6618 N.2     
   7 C7             1.5187    -3.3748    -1.2974 C.2     
   8 N8             2.8153    -3.0399    -1.4497 N.am    
   9 C9            -1.9394     1.4958    -2.3446 C.ar    
  10 O10            1.2116    -4.5292    -1.0687 O.2     
  11 C11            3.8547    -4.0664    -1.3398 C.3     
  12 C12            4.2289    -4.2577     0.1313 C.3     
  13 C13            5.0721    -3.6336    -2.1156 C.2     
  14 C14            2.9737    -4.6001     0.9364 C.3     
  15 C15            5.2415    -5.3980     0.2559 C.3     
  16 C16            4.8457    -2.9665     0.6728 C.3     
  17 O17            5.1775    -2.4838    -2.4867 O.2     
  18 N18            6.0437    -4.5243    -2.3969 N.am    
  19 C19            7.2607    -4.0875    -3.0856 C.3     
  20 C20           -2.1287     2.8445    -2.5657 C.ar    
  21 C21           -1.0850     3.7341    -2.3726 C.ar    
  22 C22            0.1566     3.2742    -1.9554 C.ar    
  23 C23            0.3540     1.9268    -1.7260 C.ar    
  24 C24           -2.9148    -1.0814    -1.4342 C.3     
  25 C25           -3.5970    -2.1087    -0.5278 C.3     
  26 C26           -3.9888    -3.3404    -1.3426 C.3     
  27 C27           -2.7502    -4.0044    -1.9358 C.3     
  28 C28           -1.5702    -3.8376    -0.9733 C.3     
  29 F29           -1.2756     5.0535    -2.5914 F       
  30 F30            1.1713     4.1463    -1.7685 F       
  31 H31            3.0601    -2.1192    -1.6322 H       
  32 H32           -2.7543     0.8035    -2.4964 H       
  33 H33            3.4811    -5.0067    -1.7450 H       
  34 H34            2.5343    -5.5200     0.5507 H       
  35 H35            3.2403    -4.7365     1.9845 H       
  36 H36            2.2524    -3.7878     0.8477 H       
  37 H37            6.0806    -5.2136    -0.4150 H       
  38 H38            5.6026    -5.4527     1.2828 H       
  39 H39            4.7627    -6.3399    -0.0116 H       
  40 H40            4.1244    -2.1542     0.5841 H       
  41 H41            5.1123    -3.1029     1.7209 H       
  42 H42            5.7399    -2.7226     0.0993 H       
  43 H43            5.9371    -5.4545    -2.1434 H       
  44 H44            7.9251    -4.9403    -3.2252 H       
  45 H45            6.9981    -3.6687    -4.0571 H       
  46 H46            7.7645    -3.3287    -2.4870 H       
  47 H47           -3.0928     3.2072    -2.8904 H       
  48 H48            1.3198     1.5690    -1.4010 H       
  49 H49           -3.0991    -0.0783    -1.0496 H       
  50 H50           -3.3173    -1.1634    -2.4438 H       
  51 H51           -2.9110    -2.4030     0.2664 H       
  52 H52           -4.4906    -1.6663    -0.0876 H       
  53 H53           -4.5038    -4.0510    -0.6962 H       
  54 H54           -4.6582    -3.0409    -2.1490 H       
  55 H55           -2.9457    -5.0655    -2.0904 H       
  56 H56           -2.5092    -3.5367    -2.8904 H       
  57 H57           -0.8749    -4.6672    -1.1016 H       
  58 H58           -1.9363    -3.8223     0.0532 H       
@<TRIPOS>BOND
   1    1    2 1
   2    1    9 ar
   3    1   23 ar
   4    2    3 1
   5    2    6 2
   6    3    4 1
   7    3   24 1
   8    4    5 2
   9    4   28 1
  10    5    6 1
  11    5    7 1
  12    7    8 am
  13    7   10 2
  14    8   11 1
  15    8   31 1
  16    9   20 ar
  17    9   32 1
  18   11   12 1
  19   11   13 1
  20   11   33 1
  21   12   14 1
  22   12   15 1
  23   12   16 1
  24   13   17 2
  25   13   18 am
  26   14   34 1
  27   14   35 1
  28   14   36 1
  29   15   37 1
  30   15   38 1
  31   15   39 1
  32   16   40 1
  33   16   41 1
  34   16   42 1
  35   18   19 1
  36   18   43 1
  37   19   44 1
  38   19   45 1
  39   19   46 1
  40   20   21 ar
  41   20   47 1
  42   21   22 ar
  43   21   29 1
  44   22   23 ar
  45   22   30 1
  46   23   48 1
  47   24   25 1
  48   24   49 1
  49   24   50 1
  50   25   26 1
  51   25   51 1
  52   25   52 1
  53   26   27 1
  54   26   53 1
  55   26   54 1
  56   27   28 1
  57   27   55 1
  58   27   56 1
  59   28   57 1
  60   28   58 1

#	End of record

