#	Name: ASD01883200
#	Creating user name:	WinNT
#	Creation time:	15. 06. 2019 19:46

#	Modifying user name:	WinNT
#	Modification time:	15. 06. 2019 19:46

#	Program:	/corina/corina34_cracker 3.40 0067  02.08.2006

@<TRIPOS>MOLECULE
ASD01883200
  48   50    0    0    0
SMALL
NO_CHARGES


@<TRIPOS>ATOM
   1 N1            -0.0700     1.2318     1.3495 N.am    
   2 C2            -0.0339    -0.0491     0.9380 C.2     
   3 C3            -1.2425    -0.7519     0.7083 C.2     
   4 C4            -2.4619    -0.0840     0.9189 C.2     
   5 C5            -2.4330     1.2569     1.3499 C.2     
   6 C6            -1.2480     1.8743     1.5576 C.2     
   7 O7             1.0375    -0.6040     0.7627 O.2     
   8 C8            -1.2226    -2.1149     0.2698 C.1     
   9 N9            -1.2069    -3.1963    -0.0780 N.1     
  10 C10            1.1877     1.9457     1.5835 C.3     
  11 C11            1.6305     2.6356     0.2916 C.3     
  12 C12            2.9440     3.3812     0.5360 C.3     
  13 C13            4.0502     2.3741     0.8567 C.3     
  14 C14            3.3223     4.1723    -0.7178 C.3     
  15 C15           -3.7482    -0.7750     0.6922 C.ar    
  16 C16           -4.6129    -1.0143     1.7631 C.ar    
  17 C17           -5.8110    -1.6587     1.5478 C.ar    
  18 C18           -6.1601    -2.0711     0.2673 C.ar    
  19 C19           -5.3024    -1.8352    -0.8006 C.ar    
  20 C20           -4.1055    -1.1854    -0.5945 C.ar    
  21 O21           -7.3417    -2.7063     0.0591 O.3     
  22 C22           -8.4761    -1.9623     0.0742 C.ar    
  23 N23           -8.3951    -0.6464     0.1807 N.ar    
  24 C24           -9.4731     0.1143     0.1993 C.ar    
  25 C25          -10.7334    -0.4418     0.1075 C.ar    
  26 C26          -10.8613    -1.8195    -0.0057 C.ar    
  27 C27           -9.7117    -2.5894    -0.0280 C.ar    
  28 H28           -3.3569     1.7904     1.5180 H       
  29 H29           -1.2382     2.9025     1.8879 H       
  30 H30            1.0414     2.6935     2.3629 H       
  31 H31            1.9543     1.2377     1.8984 H       
  32 H32            1.7768     1.8879    -0.4879 H       
  33 H33            0.8640     3.3436    -0.0234 H       
  34 H34            2.8222     4.0665     1.3749 H       
  35 H35            3.7806     1.8105     1.7499 H       
  36 H36            4.1720     1.6888     0.0178 H       
  37 H37            4.9859     2.9053     1.0308 H       
  38 H38            2.5343     4.8898    -0.9463 H       
  39 H39            4.2581     4.7035    -0.5437 H       
  40 H40            3.4442     3.4870    -1.5567 H       
  41 H41           -4.3420    -0.6948     2.7586 H       
  42 H42           -6.4800    -1.8441     2.3752 H       
  43 H43           -5.5770    -2.1574    -1.7942 H       
  44 H44           -3.4395    -1.0025    -1.4248 H       
  45 H45           -9.3682     1.1856     0.2879 H       
  46 H46          -11.6105     0.1883     0.1238 H       
  47 H47          -11.8356    -2.2796    -0.0791 H       
  48 H48           -9.7743    -3.6640    -0.1154 H       
@<TRIPOS>BOND
   1    1    2 am
   2    1   10 1
   3    1    6 1
   4    2    3 1
   5    2    7 2
   6    3    4 2
   7    3    8 1
   8    4    5 1
   9    4   15 1
  10    5    6 2
  11    5   28 1
  12    6   29 1
  13    8    9 3
  14   10   11 1
  15   10   30 1
  16   10   31 1
  17   11   12 1
  18   11   32 1
  19   11   33 1
  20   12   13 1
  21   12   14 1
  22   12   34 1
  23   13   35 1
  24   13   36 1
  25   13   37 1
  26   14   38 1
  27   14   39 1
  28   14   40 1
  29   15   16 ar
  30   15   20 ar
  31   16   17 ar
  32   16   41 1
  33   17   18 ar
  34   17   42 1
  35   18   19 ar
  36   18   21 1
  37   19   20 ar
  38   19   43 1
  39   20   44 1
  40   21   22 1
  41   22   23 ar
  42   22   27 ar
  43   23   24 ar
  44   24   25 ar
  45   24   45 1
  46   25   26 ar
  47   25   46 1
  48   26   27 ar
  49   26   47 1
  50   27   48 1

#	End of record

