#	Name: ASD01840372
#	Creating user name:	WinNT
#	Creation time:	15. 06. 2019 19:37

#	Modifying user name:	WinNT
#	Modification time:	15. 06. 2019 19:37

#	Program:	/corina/corina34_cracker 3.40 0067  02.08.2006

@<TRIPOS>MOLECULE
ASD01840372
  53   57    0    0    0
SMALL
NO_CHARGES


@<TRIPOS>ATOM
   1 C1             0.2611     1.7552    -0.9980 C.ar    
   2 C2             0.3841     0.5320    -1.6195 C.ar    
   3 N3             1.4990    -0.1677    -1.4965 N.ar    
   4 N4             2.4999     0.2427    -0.8111 N.ar    
   5 C5             1.3546     2.2267    -0.2364 C.ar    
   6 C6             1.5104     3.4570     0.5171 C.2     
   7 C7             2.4928     1.4121    -0.1670 C.ar    
   8 S8             3.7250     2.1824     0.8223 S.3     
   9 C9             2.7118     3.5783     1.1344 C.2     
  10 C10           -0.9999     2.5697    -1.1313 C.3     
  11 C11           -0.7562    -0.0106    -2.4419 C.3     
  12 N12            0.5179     4.4243     0.5985 N.pl3   
  13 C13            3.1102     4.7236     1.9514 C.2     
  14 O14            2.3404     5.6527     2.1138 O.2     
  15 N15            4.3297     4.7507     2.5248 N.am    
  16 C16            5.0757     5.6831     3.3831 C.3     
  17 C17            5.4973     3.8578     2.5728 C.3     
  18 C18            6.3699     5.1042     2.7947 C.3     
  19 N19            6.8146     5.7588     1.5618 N.am    
  20 C20            8.1169     5.7308     1.2159 C.2     
  21 C21            8.5744     6.4041    -0.0523 C.3     
  22 C22            9.4472     7.6530     0.0862 C.3     
  23 C23           10.0652     6.3368    -0.3898 C.3     
  24 C24           10.9637     5.6023     0.5716 C.ar    
  25 C25           11.6891     4.5074     0.1404 C.ar    
  26 C26           12.5133     3.8336     1.0222 C.ar    
  27 C27           12.6124     4.2549     2.3350 C.ar    
  28 C28           11.8877     5.3503     2.7660 C.ar    
  29 C29           11.0669     6.0268     1.8831 C.ar    
  30 O30            8.9207     5.1637     1.9253 O.2     
  31 H31           -1.6441     2.3852    -0.2716 H       
  32 H32           -0.7456     3.6287    -1.1742 H       
  33 H33           -1.5220     2.2841    -2.0445 H       
  34 H34           -0.6493     0.3210    -3.4747 H       
  35 H35           -0.7433    -1.1000    -2.4068 H       
  36 H36           -1.7008     0.3547    -2.0389 H       
  37 H37           -0.4028     4.1923     0.4002 H       
  38 H38            0.7452     5.3322     0.8537 H       
  39 H39            4.9141     6.7308     3.1292 H       
  40 H40            4.9558     5.4836     4.4479 H       
  41 H41            5.4885     3.1771     3.4240 H       
  42 H42            5.6948     3.3503     1.6286 H       
  43 H43            7.1685     4.9642     3.5231 H       
  44 H44            6.1717     6.2124     0.9944 H       
  45 H45            7.8683     6.3730    -0.8821 H       
  46 H46            9.3156     8.4435    -0.6528 H       
  47 H47            9.6906     7.9877     1.0946 H       
  48 H48           10.3402     6.2613    -1.4418 H       
  49 H49           11.6117     4.1782    -0.8853 H       
  50 H50           13.0795     2.9777     0.6855 H       
  51 H51           13.2558     3.7280     3.0242 H       
  52 H52           11.9649     5.6793     3.7917 H       
  53 H53           10.5035     6.8849     2.2188 H       
@<TRIPOS>BOND
   1    1    2 ar
   2    1    5 ar
   3    1   10 1
   4    2   11 1
   5    2    3 ar
   6    3    4 ar
   7    4    7 ar
   8    5    7 ar
   9    5    6 1
  10    6    9 2
  11    6   12 1
  12    7    8 1
  13    8    9 1
  14    9   13 1
  15   10   31 1
  16   10   32 1
  17   10   33 1
  18   11   34 1
  19   11   35 1
  20   11   36 1
  21   12   37 1
  22   12   38 1
  23   13   14 2
  24   13   15 am
  25   15   16 1
  26   15   17 1
  27   16   18 1
  28   16   39 1
  29   16   40 1
  30   17   18 1
  31   17   41 1
  32   17   42 1
  33   18   19 1
  34   18   43 1
  35   19   20 am
  36   19   44 1
  37   20   21 1
  38   20   30 2
  39   21   22 1
  40   21   23 1
  41   21   45 1
  42   22   23 1
  43   22   46 1
  44   22   47 1
  45   23   24 1
  46   23   48 1
  47   24   25 ar
  48   24   29 ar
  49   25   26 ar
  50   25   49 1
  51   26   27 ar
  52   26   50 1
  53   27   28 ar
  54   27   51 1
  55   28   29 ar
  56   28   52 1
  57   29   53 1

#	End of record

