#	Name: ASD03930198
#	Creating user name:	WinNT
#	Creation time:	15. 06. 2019 20:47

#	Modifying user name:	WinNT
#	Modification time:	15. 06. 2019 20:47

#	Program:	/corina/corina34_cracker 3.40 0067  02.08.2006

@<TRIPOS>MOLECULE
ASD03930198
  38   39    0    0    0
SMALL
NO_CHARGES


@<TRIPOS>ATOM
   1 S1            -0.0205     1.6625     0.0112 S.o2    
   2 N2             0.0021    -0.0041     0.0020 N.am    
   3 C3             0.3284    -0.7079    -1.2344 C.3     
   4 C4             1.7426    -0.4307    -1.7214 C.3     
   5 O5             1.9106     0.9488    -2.0696 O.3     
   6 C6             2.4370     1.7413    -1.1016 C.ar    
   7 C7             1.6898     2.1416    -0.0026 C.ar    
   8 C8             3.7620     2.1535    -1.1909 C.ar    
   9 C9             4.3196     2.9075    -0.1774 C.ar    
  10 C10            3.5711     3.2617     0.9351 C.ar    
  11 C11            2.2369     2.8750     1.0171 C.ar    
  12 C12           -0.2777    -0.6948     1.1250 C.2     
  13 O13           -0.2595    -1.9097     1.1114 O.2     
  14 O14           -0.5775    -0.0387     2.2618 O.3     
  15 O15            4.1374     3.9829     1.9392 O.3     
  16 O16           -0.5708     2.0717    -1.2334 O.2     
  17 O17           -0.5469     2.0583     1.2703 O.2     
  18 C18           -0.8681    -0.8471     3.4324 C.3     
  19 C19            0.3465    -1.7154     3.7669 C.3     
  20 C20           -1.1834     0.0670     4.6180 C.3     
  21 C21           -2.0734    -1.7448     3.1458 C.3     
  22 H22            0.2187    -1.7794    -1.0675 H       
  23 H23           -0.3754    -0.4019    -2.0084 H       
  24 H24            2.4490    -0.6884    -0.9324 H       
  25 H25            1.9461    -1.0473    -2.5969 H       
  26 H26            4.3549     1.8838    -2.0524 H       
  27 H27            5.3494     3.2243    -0.2516 H       
  28 H28            1.6401     3.1494     1.8744 H       
  29 H29            4.0591     4.9403     1.8284 H       
  30 H30            1.2052    -1.0759     3.9710 H       
  31 H31            0.1283    -2.3223     4.6457 H       
  32 H32            0.5712    -2.3667     2.9222 H       
  33 H33           -2.0487     0.6856     4.3798 H       
  34 H34           -1.4016    -0.5398     5.4968 H       
  35 H35           -0.3247     0.7066     4.8222 H       
  36 H36           -1.8487    -2.3961     2.3012 H       
  37 H37           -2.2916    -2.3517     4.0246 H       
  38 H38           -2.9387    -1.1263     2.9076 H       
@<TRIPOS>BOND
   1    1    2 am
   2    1    7 1
   3    1   16 2
   4    1   17 2
   5    2    3 1
   6    2   12 am
   7    3    4 1
   8    3   22 1
   9    3   23 1
  10    4    5 1
  11    4   24 1
  12    4   25 1
  13    5    6 1
  14    6    7 ar
  15    6    8 ar
  16    7   11 ar
  17    8    9 ar
  18    8   26 1
  19    9   10 ar
  20    9   27 1
  21   10   11 ar
  22   10   15 1
  23   11   28 1
  24   12   13 2
  25   12   14 1
  26   14   18 1
  27   15   29 1
  28   18   19 1
  29   18   21 1
  30   18   20 1
  31   19   30 1
  32   19   31 1
  33   19   32 1
  34   20   33 1
  35   20   34 1
  36   20   35 1
  37   21   36 1
  38   21   37 1
  39   21   38 1

#	End of record

