#	Name: ASD01885607
#	Creating user name:	WinNT
#	Creation time:	15. 06. 2019 19:49

#	Modifying user name:	WinNT
#	Modification time:	15. 06. 2019 19:49

#	Program:	/corina/corina34_cracker 3.40 0067  02.08.2006

@<TRIPOS>MOLECULE
ASD01885607
  56   60    0    0    0
SMALL
NO_CHARGES


@<TRIPOS>ATOM
   1 C1            -0.0168     1.3900     0.0097 C.ar    
   2 C2             0.0021    -0.0041     0.0020 C.ar    
   3 C3            -1.1850    -0.7081     0.0095 C.ar    
   4 C4            -2.3923    -0.0338     0.0242 C.ar    
   5 C5            -2.4181     1.3507     0.0318 C.ar    
   6 C6            -1.2366     2.0654     0.0308 C.ar    
   7 C7             1.2548     2.1512     0.0016 C.2     
   8 C8             2.1441     2.0692     1.1006 C.2     
   9 C9             3.2987     2.7614     1.0914 C.2     
  10 N10            3.6326     3.5505     0.0286 N.pl3   
  11 C11            2.7975     3.6569    -1.0574 C.2     
  12 C12            1.5869     2.9434    -1.0808 C.2     
  13 C13            4.7049     4.3420    -0.2485 C.2     
  14 N14            4.5061     4.8773    -1.4255 N.2     
  15 N15            3.3835     4.4803    -1.9129 N.2     
  16 C16            5.9029     4.5615     0.6389 C.3     
  17 C17            6.9737     3.5169     0.3180 C.3     
  18 C18           -3.6848    -0.8087     0.0313 C.3     
  19 C19            8.3202     3.6424     1.0337 C.3     
  20 C20            7.3482     2.5267     1.4226 C.3     
  21 N21           -4.2772    -0.7607     1.3747 N.3     
  22 C22           -5.5415    -1.5073     1.4196 C.3     
  23 C23           -5.8109    -1.9730     2.8538 C.3     
  24 C24           -7.1673    -2.6811     2.9058 C.3     
  25 O25           -8.1853    -1.7922     2.4413 O.3     
  26 C26           -8.0112    -1.3610     1.0900 C.3     
  27 C27           -6.6888    -0.5999     0.9651 C.3     
  28 Cl28          -3.9381     2.1891     0.0502 Cl      
  29 C29            0.6597     3.0490    -2.2642 C.3     
  30 F30           -0.1636     4.1699    -2.1129 F       
  31 F31            1.4125     3.1781    -3.4363 F       
  32 F32           -0.1304     1.8971    -2.3419 F       
  33 H33            0.9441    -0.5322    -0.0101 H       
  34 H34           -1.1710    -1.7880     0.0036 H       
  35 H35           -1.2573     3.1452     0.0371 H       
  36 H36            1.8950     1.4495     1.9493 H       
  37 H37            3.9690     2.6918     1.9354 H       
  38 H38            6.3055     5.5595     0.4656 H       
  39 H39            5.6040     4.4666     1.6829 H       
  40 H40            6.9818     3.1522    -0.7092 H       
  41 H41           -4.3766    -0.3682    -0.6867 H       
  42 H42           -3.4885    -1.8454    -0.2424 H       
  43 H43            9.2140     3.3600     0.4775 H       
  44 H44            8.4431     4.4693     1.7332 H       
  45 H45            6.8317     2.6195     2.3780 H       
  46 H46            7.6026     1.5102     1.1223 H       
  47 H47           -3.6295    -1.1043     2.0679 H       
  48 H48           -5.4771    -2.3734     0.7611 H       
  49 H49           -5.0274    -2.6634     3.1659 H       
  50 H50           -5.8245    -1.1106     3.5203 H       
  51 H51           -7.1398    -3.5662     2.2703 H       
  52 H52           -7.3837    -2.9770     3.9323 H       
  53 H53           -7.9948    -2.2289     0.4308 H       
  54 H54           -8.8357    -0.7060     0.8085 H       
  55 H55           -6.7201     0.2902     1.5935 H       
  56 H56           -6.5331    -0.3083    -0.0736 H       
@<TRIPOS>BOND
   1    1    2 ar
   2    1    7 1
   3    1    6 ar
   4    2    3 ar
   5    2   33 1
   6    3    4 ar
   7    3   34 1
   8    4    5 ar
   9    4   18 1
  10    5    6 ar
  11    5   28 1
  12    6   35 1
  13    7    8 1
  14    7   12 2
  15    8    9 2
  16    8   36 1
  17    9   10 1
  18    9   37 1
  19   10   11 1
  20   10   13 1
  21   11   12 1
  22   11   15 2
  23   12   29 1
  24   13   14 2
  25   13   16 1
  26   14   15 1
  27   16   17 1
  28   16   38 1
  29   16   39 1
  30   17   19 1
  31   17   20 1
  32   17   40 1
  33   18   21 1
  34   18   41 1
  35   18   42 1
  36   19   20 1
  37   19   43 1
  38   19   44 1
  39   20   45 1
  40   20   46 1
  41   21   22 1
  42   21   47 1
  43   22   23 1
  44   22   27 1
  45   22   48 1
  46   23   24 1
  47   23   49 1
  48   23   50 1
  49   24   25 1
  50   24   51 1
  51   24   52 1
  52   25   26 1
  53   26   27 1
  54   26   53 1
  55   26   54 1
  56   27   55 1
  57   27   56 1
  58   29   30 1
  59   29   31 1
  60   29   32 1

#	End of record

