#	Name: ASD03731068
#	Creating user name:	WinNT
#	Creation time:	15. 06. 2019 20:45

#	Modifying user name:	WinNT
#	Modification time:	15. 06. 2019 20:45

#	Program:	/corina/corina34_cracker 3.40 0067  02.08.2006

@<TRIPOS>MOLECULE
ASD03731068
  65   70    0    0    0
SMALL
NO_CHARGES


@<TRIPOS>ATOM
   1 O1            -0.0288     1.4903    -1.0296 O.3     
   2 C2            -0.0111     0.0671    -1.2471 C.3     
   3 O3             1.2412    -0.1611    -1.9196 O.3     
   4 C4             2.0642     0.8501    -1.5129 C.ar    
   5 C5             1.2826     1.8656    -0.9668 C.ar    
   6 C6             3.4396     0.9877    -1.5648 C.ar    
   7 C7             4.0520     2.1377    -1.0756 C.ar    
   8 C8             3.2602     3.1489    -0.5400 C.ar    
   9 C9             1.8889     3.0119    -0.4811 C.ar    
  10 O10            5.3752     2.4625    -1.0162 O.3     
  11 C11            4.1959     4.2544    -0.1299 C.3     
  12 C12            5.5074     3.8859    -0.8369 C.3     
  13 N13            3.5963     6.3438     0.5765 N.am    
  14 C14            3.6954     5.6069    -0.5479 C.2     
  15 C15            4.3659     4.3355     1.3582 C.ar    
  16 C16            4.7888     3.4425     2.3174 C.ar    
  17 C17            4.8385     3.8249     3.6460 C.ar    
  18 C18            4.4624     5.1055     4.0081 C.ar    
  19 C19            4.0373     6.0034     3.0513 C.ar    
  20 C20            3.9843     5.6273     1.7113 C.ar    
  21 O21            3.4324     5.9662    -1.6761 O.2     
  22 C22            3.1360     7.7343     0.6051 C.3     
  23 N23           -0.9770     8.6420    -0.1217 N.3     
  24 C24           -0.3740     9.2441     1.0742 C.3     
  25 C25            1.1509     9.2152     0.9479 C.3     
  26 C26            1.6179     7.7652     0.7929 C.3     
  27 C27            0.9381     7.1465    -0.4317 C.3     
  28 C28           -0.5806     7.2354    -0.2653 C.3     
  29 C29           -2.4396     8.7770    -0.0985 C.3     
  30 C30           -2.8324    10.2642    -0.1397 C.3     
  31 C31           -3.6682    10.4639    -1.4209 C.3     
  32 C32           -4.2313     9.0547    -1.7307 C.3     
  33 C33           -3.0504     8.1249    -1.3561 C.3     
  34 H34           -0.0381    -0.4659    -0.2967 H       
  35 H35           -0.8459    -0.2340    -1.8799 H       
  36 H36            4.0423     0.1974    -1.9875 H       
  37 H37            1.2866     3.8009    -0.0556 H       
  38 H38            6.3657     4.1187    -0.2067 H       
  39 H39            5.5838     4.3919    -1.7993 H       
  40 H40            5.0816     2.4428     2.0322 H       
  41 H41            5.1698     3.1248     4.3987 H       
  42 H42            4.5015     5.4040     5.0453 H       
  43 H43            3.7444     7.0014     3.3421 H       
  44 H44            3.6151     8.2587     1.4319 H       
  45 H45            3.3959     8.2224    -0.3341 H       
  46 H46           -0.7109    10.2763     1.1704 H       
  47 H47           -0.6761     8.6799     1.9566 H       
  48 H48            1.4546     9.7907     0.0735 H       
  49 H49            1.5985     9.6480     1.8426 H       
  50 H50            1.3495     7.1988     1.6847 H       
  51 H51            1.2385     7.6895    -1.3278 H       
  52 H52            1.2337     6.1012    -0.5226 H       
  53 H53           -0.8817     6.6806     0.6233 H       
  54 H54           -1.0676     6.8085    -1.1421 H       
  55 H55           -2.8434     8.3089     0.7992 H       
  56 H56           -3.4275    10.5177     0.7376 H       
  57 H57           -1.9378    10.8858    -0.1769 H       
  58 H58           -4.4804    11.1681    -1.2406 H       
  59 H59           -3.0361    10.8104    -2.2386 H       
  60 H60           -5.1022     8.8418    -1.1107 H       
  61 H61           -4.4765     8.9606    -2.7885 H       
  62 H62           -2.3186     8.0936    -2.1633 H       
  63 H63           -3.4119     7.1221    -1.1285 H       
  64 Cl64          11.3657    16.1681    10.0453 Cl      
  65 H65           11.3657    17.5381    10.0453 H       
@<TRIPOS>BOND
   1    1    2 1
   2    1    5 1
   3    2    3 1
   4    2   34 1
   5    2   35 1
   6    3    4 1
   7    4    5 ar
   8    4    6 ar
   9    5    9 ar
  10    6    7 ar
  11    6   36 1
  12    7    8 ar
  13    7   10 1
  14    8    9 ar
  15    8   11 1
  16    9   37 1
  17   10   12 1
  18   11   12 1
  19   11   14 1
  20   11   15 1
  21   12   38 1
  22   12   39 1
  23   13   14 am
  24   13   20 1
  25   13   22 1
  26   14   21 2
  27   15   16 ar
  28   15   20 ar
  29   16   17 ar
  30   16   40 1
  31   17   18 ar
  32   17   41 1
  33   18   19 ar
  34   18   42 1
  35   19   20 ar
  36   19   43 1
  37   22   26 1
  38   22   44 1
  39   22   45 1
  40   23   24 1
  41   23   28 1
  42   23   29 1
  43   24   25 1
  44   24   46 1
  45   24   47 1
  46   25   26 1
  47   25   48 1
  48   25   49 1
  49   26   27 1
  50   26   50 1
  51   27   28 1
  52   27   51 1
  53   27   52 1
  54   28   53 1
  55   28   54 1
  56   29   30 1
  57   29   33 1
  58   29   55 1
  59   30   31 1
  60   30   56 1
  61   30   57 1
  62   31   32 1
  63   31   58 1
  64   31   59 1
  65   32   33 1
  66   32   60 1
  67   32   61 1
  68   33   62 1
  69   33   63 1
  70   64   65 1

#	End of record

