#	Name: ASD03731653
#	Creating user name:	WinNT
#	Creation time:	15. 06. 2019 20:46

#	Modifying user name:	WinNT
#	Modification time:	15. 06. 2019 20:46

#	Program:	/corina/corina34_cracker 3.40 0067  02.08.2006

@<TRIPOS>MOLECULE
ASD03731653
  39   40    0    0    0
SMALL
NO_CHARGES


@<TRIPOS>ATOM
   1 C1            -0.1359     1.4672     0.0332 C.2     
   2 C2            -0.0848    -0.0063     0.0191 C.ar    
   3 C3             1.1403    -0.6649    -0.1384 C.ar    
   4 C4             1.1829    -2.0446    -0.1511 C.ar    
   5 C5             0.0130    -2.7784    -0.0079 C.ar    
   6 C6            -1.2079    -2.1270     0.1486 C.ar    
   7 C7            -1.2593    -0.7501     0.1687 C.ar    
   8 O8             0.8873     2.1123    -0.0920 O.2     
   9 N9            -1.3173     2.0992     0.1794 N.am    
  10 S10           -1.3746     3.7541     0.1953 S.o2    
  11 O11           -2.7497     4.0553     0.3891 O.2     
  12 O12           -0.3996     4.1293     1.1586 O.2     
  13 C13           -0.8447     4.2414    -1.4697 C.3     
  14 F14           -2.3431    -2.8463     0.2866 F       
  15 F15            2.2790     0.0485    -0.2783 F       
  16 O16            0.0593    -4.1350    -0.0209 O.3     
  17 C17           -0.1519    -4.7692    -1.2039 C.ar    
  18 C18           -0.0461    -6.1508    -1.2805 C.ar    
  19 C19           -0.2617    -6.7930    -2.4841 C.ar    
  20 C20           -0.5829    -6.0605    -3.6123 C.ar    
  21 C21           -0.6890    -4.6841    -3.5387 C.ar    
  22 C22           -0.4794    -4.0372    -2.3360 C.ar    
  23 C23            0.3044    -6.9497    -0.0516 C.3     
  24 C24           -0.9672    -7.2385     0.7487 C.3     
  25 H25            2.1274    -2.5539    -0.2728 H       
  26 H26           -2.2061    -0.2462     0.2953 H       
  27 H27           -2.1339     1.5847     0.2753 H       
  28 H28           -1.5269     3.8177    -2.2067 H       
  29 H29           -0.8526     5.3284    -1.5500 H       
  30 H30            0.1639     3.8709    -1.6530 H       
  31 H31           -0.1791    -7.8682    -2.5443 H       
  32 H32           -0.7508    -6.5646    -4.5525 H       
  33 H33           -0.9399    -4.1143    -4.4212 H       
  34 H34           -0.5667    -2.9623    -2.2781 H       
  35 H35            0.7677    -7.8902    -0.3496 H       
  36 H36            1.0005    -6.3811     0.5650 H       
  37 H37           -1.4305    -6.2979     1.0466 H       
  38 H38           -1.6633    -7.8071     0.1320 H       
  39 H39           -0.7138    -7.8163     1.6375 H       
@<TRIPOS>BOND
   1    1    2 1
   2    1    8 2
   3    1    9 am
   4    2    3 ar
   5    2    7 ar
   6    3    4 ar
   7    3   15 1
   8    4    5 ar
   9    4   25 1
  10    5    6 ar
  11    5   16 1
  12    6    7 ar
  13    6   14 1
  14    7   26 1
  15    9   10 am
  16    9   27 1
  17   10   11 2
  18   10   12 2
  19   10   13 1
  20   13   28 1
  21   13   29 1
  22   13   30 1
  23   16   17 1
  24   17   18 ar
  25   17   22 ar
  26   18   19 ar
  27   18   23 1
  28   19   20 ar
  29   19   31 1
  30   20   21 ar
  31   20   32 1
  32   21   22 ar
  33   21   33 1
  34   22   34 1
  35   23   24 1
  36   23   35 1
  37   23   36 1
  38   24   37 1
  39   24   38 1
  40   24   39 1

#	End of record

