#	Name: ASD01901417
#	Creating user name:	WinNT
#	Creation time:	15. 06. 2019 19:53

#	Modifying user name:	WinNT
#	Modification time:	15. 06. 2019 19:53

#	Program:	/corina/corina34_cracker 3.40 0067  02.08.2006

@<TRIPOS>MOLECULE
ASD01901417
  41   44    0    0    0
SMALL
NO_CHARGES


@<TRIPOS>ATOM
   1 C1            -0.0169     1.3926     0.0097 C.ar    
   2 C2            -1.2307     2.0648     0.0191 C.ar    
   3 C3            -2.4168     1.3522     0.0209 C.ar    
   4 C4            -2.3991    -0.0315     0.0137 C.ar    
   5 C5            -1.1982    -0.7114     0.0043 C.ar    
   6 C6             0.0021    -0.0041     0.0020 C.ar    
   7 C7             1.2954    -0.7315    -0.0143 C.2     
   8 N8             3.2240    -1.4623     1.1351 N.2     
   9 C9             2.0823    -0.8192     1.1547 C.2     
  10 C10            1.7390    -1.3309    -1.1598 C.2     
  11 N11            2.9320    -1.9912    -1.1402 N.pl3   
  12 C12            3.6698    -2.0489     0.0141 C.2     
  13 C13            3.6286    -2.6749    -2.1000 C.2     
  14 C14            4.7602    -3.1291    -1.5209 C.2     
  15 N15            4.7710    -2.7408    -0.2423 N.2     
  16 C16            5.8334    -3.9378    -2.2031 C.3     
  17 O17            5.4712    -4.1545    -3.5683 O.3     
  18 C18            6.3365    -4.8712    -4.3289 C.ar    
  19 C19            6.0425    -5.1102    -5.6649 C.ar    
  20 N20            7.4547    -5.3309    -3.7921 N.ar    
  21 C21            8.3232    -6.0319    -4.4957 C.ar    
  22 C22            8.0928    -6.3121    -5.8281 C.ar    
  23 C23            6.9337    -5.8428    -6.4300 C.ar    
  24 F24           -1.2546     3.4156     0.0270 F       
  25 C25            1.6939     2.4307    -1.2744 C.3     
  26 O26            1.1494     2.0907     0.0023 O.3     
  27 H27           -3.3601     1.8779     0.0282 H       
  28 H28           -3.3287    -0.5814     0.0159 H       
  29 H29           -1.1889    -1.7914    -0.0009 H       
  30 H30            1.7423    -0.3542     2.0683 H       
  31 H31            1.1537    -1.2826    -2.0662 H       
  32 H32            3.3292    -2.8229    -3.1271 H       
  33 H33            6.7788    -3.3971    -2.1594 H       
  34 H34            5.9405    -4.8982    -1.6988 H       
  35 H35            5.1306    -4.7300    -6.1011 H       
  36 H36            9.2258    -6.3908    -4.0237 H       
  37 H37            8.8090    -6.8866    -6.3967 H       
  38 H38            6.7317    -6.0442    -7.4717 H       
  39 H39            2.6225     2.9849    -1.1375 H       
  40 H40            1.8943     1.5197    -1.8382 H       
  41 H41            0.9803     3.0469    -1.8213 H       
@<TRIPOS>BOND
   1    1    6 ar
   2    1   26 1
   3    1    2 ar
   4    2    3 ar
   5    2   24 1
   6    3    4 ar
   7    3   27 1
   8    4    5 ar
   9    4   28 1
  10    5    6 ar
  11    5   29 1
  12    6    7 1
  13    7   10 2
  14    7    9 1
  15    8    9 2
  16    8   12 1
  17    9   30 1
  18   10   11 1
  19   10   31 1
  20   11   13 1
  21   11   12 1
  22   12   15 2
  23   13   14 2
  24   13   32 1
  25   14   15 1
  26   14   16 1
  27   16   17 1
  28   16   33 1
  29   16   34 1
  30   17   18 1
  31   18   20 ar
  32   18   19 ar
  33   19   23 ar
  34   19   35 1
  35   20   21 ar
  36   21   22 ar
  37   21   36 1
  38   22   23 ar
  39   22   37 1
  40   23   38 1
  41   25   26 1
  42   25   39 1
  43   25   40 1
  44   25   41 1

#	End of record

