#	Name: ASD03540140
#	Creating user name:	WinNT
#	Creation time:	15. 06. 2019 20:42

#	Modifying user name:	WinNT
#	Modification time:	15. 06. 2019 20:42

#	Program:	/corina/corina34_cracker 3.40 0067  02.08.2006

@<TRIPOS>MOLECULE
ASD03540140
  52   54    0    0    0
SMALL
NO_CHARGES


@<TRIPOS>ATOM
   1 C1            -0.0180     1.4744     0.0101 C.2     
   2 C2             0.0021    -0.0041     0.0020 C.ar    
   3 C3             1.2171    -0.6858    -0.0132 C.ar    
   4 C4             1.2272    -2.0787    -0.0203 C.ar    
   5 C5             2.5119    -2.8104    -0.0360 C.2     
   6 C6             0.0206    -2.7829    -0.0121 C.ar    
   7 C7            -1.1799    -2.1012     0.0030 C.ar    
   8 C8            -1.1968    -0.7203     0.0155 C.ar    
   9 O9             1.0263     2.0964     0.0035 O.2     
  10 N10           -1.1942     2.1323     0.0193 N.am    
  11 O11            3.5609    -2.1964    -0.0428 O.2     
  12 N12            2.5199    -4.1581    -0.0429 N.am    
  13 C13            3.7929    -4.8830    -0.0584 C.3     
  14 C14            3.5262    -6.3662    -0.0634 C.ar    
  15 C15            3.3927    -7.0405    -1.2627 C.ar    
  16 C16            3.1481    -8.4010    -1.2673 C.ar    
  17 C17            3.0375    -9.0874    -0.0725 C.ar    
  18 C18            3.1719    -8.4133     1.1269 C.ar    
  19 C19            3.4208    -7.0535     1.1313 C.ar    
  20 N20            2.7746   -10.5440    -0.0773 N.pl3   
  21 O21            2.6558   -11.1379    -1.1341 O.2     
  22 O22            2.6771   -11.1488     0.9754 O.2     
  23 C23           -1.2141     3.5972     0.0274 C.3     
  24 C24           -2.6415     4.0801     0.0368 C.ar    
  25 C25           -3.2897     4.2948     1.2379 C.ar    
  26 C26           -4.6036     4.7394     1.2459 C.ar    
  27 C27           -5.2637     4.9673     0.0469 C.ar    
  28 C28           -4.6113     4.7512    -1.1512 C.ar    
  29 C29           -3.2996     4.3134    -1.1564 C.ar    
  30 O30           -5.2435     4.9509     2.4260 O.3     
  31 C31           -6.5955     5.4086     2.3580 C.3     
  32 H32            2.1471    -0.1367    -0.0199 H       
  33 H33            0.0269    -3.8628    -0.0180 H       
  34 H34           -2.1098    -2.6503     0.0090 H       
  35 H35           -2.1393    -0.1932     0.0318 H       
  36 H36           -2.0276     1.6360     0.0206 H       
  37 H37            1.6827    -4.6481    -0.0375 H       
  38 H38            4.3545    -4.6118    -0.9524 H       
  39 H39            4.3712    -4.6208     0.8275 H       
  40 H40            3.4792    -6.5043    -2.1962 H       
  41 H41            3.0431    -8.9277    -2.2043 H       
  42 H42            3.0850    -8.9495     2.0603 H       
  43 H43            3.5294    -6.5275     2.0683 H       
  44 H44           -0.7010     3.9626     0.9169 H       
  45 H45           -0.7094     3.9723    -0.8630 H       
  46 H46           -2.7739     4.1164     2.1698 H       
  47 H47           -6.2869     5.3131     0.0505 H       
  48 H48           -5.1248     4.9281    -2.0847 H       
  49 H49           -2.7897     4.1495    -2.0943 H       
  50 H50           -6.6301     6.3622     1.8311 H       
  51 H51           -7.2006     4.6761     1.8239 H       
  52 H52           -6.9868     5.5368     3.3673 H       
@<TRIPOS>BOND
   1    1    2 1
   2    1    9 2
   3    1   10 am
   4    2    3 ar
   5    2    8 ar
   6    3    4 ar
   7    3   32 1
   8    4    5 1
   9    4    6 ar
  10    5   11 2
  11    5   12 am
  12    6    7 ar
  13    6   33 1
  14    7    8 ar
  15    7   34 1
  16    8   35 1
  17   10   23 1
  18   10   36 1
  19   12   13 1
  20   12   37 1
  21   13   14 1
  22   13   38 1
  23   13   39 1
  24   14   15 ar
  25   14   19 ar
  26   15   16 ar
  27   15   40 1
  28   16   17 ar
  29   16   41 1
  30   17   18 ar
  31   17   20 1
  32   18   19 ar
  33   18   42 1
  34   19   43 1
  35   20   21 2
  36   20   22 2
  37   23   24 1
  38   23   44 1
  39   23   45 1
  40   24   25 ar
  41   24   29 ar
  42   25   26 ar
  43   25   46 1
  44   26   27 ar
  45   26   30 1
  46   27   28 ar
  47   27   47 1
  48   28   29 ar
  49   28   48 1
  50   29   49 1
  51   30   31 1
  52   31   50 1
  53   31   51 1
  54   31   52 1

#	End of record

