#	Name: ASD01880093
#	Creating user name:	WinNT
#	Creation time:	15. 06. 2019 19:40

#	Modifying user name:	WinNT
#	Modification time:	15. 06. 2019 19:40

#	Program:	/corina/corina34_cracker 3.40 0067  02.08.2006

@<TRIPOS>MOLECULE
ASD01880093
  67   71    0    0    0
SMALL
NO_CHARGES


@<TRIPOS>ATOM
   1 C1             0.0291     1.3041    -0.4534 C.ar    
   2 C2             0.0539    -0.0557    -0.2192 C.ar    
   3 C3             1.2114    -0.6648     0.2261 C.ar    
   4 C4             2.3630     0.0909     0.4415 C.ar    
   5 C5             2.3466     1.4619     0.2074 C.ar    
   6 C6             1.1764     2.0726    -0.2414 C.ar    
   7 C7             3.6045    -0.5664     0.9203 C.ar    
   8 C8             4.8130    -0.3389     0.2658 C.ar    
   9 C9             5.9648    -0.9525     0.7157 C.ar    
  10 C10            5.9204    -1.7921     1.8137 C.ar    
  11 C11            4.7229    -2.0216     2.4674 C.ar    
  12 C12            3.5665    -1.4088     2.0297 C.ar    
  13 C13            4.6823    -2.9381     3.6629 C.3     
  14 O14            4.9117    -2.1801     4.8524 O.3     
  15 C15            4.9073    -2.8599     6.0264 C.ar    
  16 C16            4.6862    -4.2319     6.0334 C.ar    
  17 C17            4.6811    -4.9265     7.2250 C.ar    
  18 C18            4.8991    -4.2487     8.4267 C.ar    
  19 C19            5.1219    -2.8610     8.4055 C.ar    
  20 C20            5.1299    -2.1840     7.2213 C.ar    
  21 C21            4.4684    -6.3950     7.5039 C.3     
  22 C22            4.5781    -6.5637     9.0256 C.3     
  23 C23            4.8506    -5.1796     9.5625 C.2     
  24 C24            3.2649    -7.1040     9.5951 C.3     
  25 C25            2.9409    -8.4709     8.9671 C.3     
  26 C26            2.8946    -9.4883    10.1258 C.3     
  27 C27            2.5855    -8.6269    11.3755 C.3     
  28 C28            3.4041    -7.3384    11.1134 C.3     
  29 O29            5.0029    -4.8864    10.7296 O.2     
  30 C30            5.3701    -0.6963     7.2088 C.3     
  31 C31            5.3578    -2.1190     9.6958 C.3     
  32 C32            3.5882     2.2839     0.4389 C.3     
  33 C33            1.1500     3.5282    -0.4931 C.2     
  34 O34            2.1742     4.1767    -0.4152 O.2     
  35 O35           -0.0098     4.1362    -0.8090 O.3     
  36 H36           -0.8773     1.7742    -0.8054 H       
  37 H37           -0.8352    -0.6461    -0.3843 H       
  38 H38            1.2239    -1.7293     0.4082 H       
  39 H39            4.8487     0.3161    -0.5922 H       
  40 H40            6.9023    -0.7768     0.2091 H       
  41 H41            6.8238    -2.2707     2.1620 H       
  42 H42            2.6322    -1.5886     2.5407 H       
  43 H43            3.7049    -3.4173     3.7203 H       
  44 H44            5.4552    -3.7002     3.5630 H       
  45 H45            4.5177    -4.7554     5.1038 H       
  46 H46            3.4793    -6.7015     7.1635 H       
  47 H47            5.2365    -6.9861     7.0052 H       
  48 H48            5.4017    -7.2335     9.2728 H       
  49 H49            2.4554    -6.4012     9.3977 H       
  50 H50            1.9739    -8.4317     8.4658 H       
  51 H51            3.7193    -8.7494     8.2567 H       
  52 H52            2.1026   -10.2188     9.9606 H       
  53 H53            3.8578    -9.9866    10.2347 H       
  54 H54            1.5206    -8.4024    11.4361 H       
  55 H55            2.9286    -9.1249    12.2824 H       
  56 H56            4.4497    -7.4895    11.3818 H       
  57 H57            2.9840    -6.5000    11.6690 H       
  58 H58            6.4388    -0.5017     7.1188 H       
  59 H59            4.8472    -0.2510     6.3625 H       
  60 H60            4.9982    -0.2604     8.1360 H       
  61 H61            6.4252    -2.1037     9.9162 H       
  62 H62            4.9921    -1.0967     9.5991 H       
  63 H63            4.8267    -2.6198    10.5052 H       
  64 H64            4.1169     2.4173    -0.5049 H       
  65 H65            3.3093     3.2583     0.8400 H       
  66 H66            4.2366     1.7708     1.1492 H       
  67 H67            0.0227     5.0900    -0.9648 H       
@<TRIPOS>BOND
   1    1    2 ar
   2    1    6 ar
   3    1   36 1
   4    2    3 ar
   5    2   37 1
   6    3    4 ar
   7    3   38 1
   8    4    5 ar
   9    4    7 1
  10    5    6 ar
  11    5   32 1
  12    6   33 1
  13    7    8 ar
  14    7   12 ar
  15    8    9 ar
  16    8   39 1
  17    9   10 ar
  18    9   40 1
  19   10   11 ar
  20   10   41 1
  21   11   12 ar
  22   11   13 1
  23   12   42 1
  24   13   14 1
  25   13   43 1
  26   13   44 1
  27   14   15 1
  28   15   16 ar
  29   15   20 ar
  30   16   17 ar
  31   16   45 1
  32   17   18 ar
  33   17   21 1
  34   18   19 ar
  35   18   23 1
  36   19   20 ar
  37   19   31 1
  38   20   30 1
  39   21   22 1
  40   21   46 1
  41   21   47 1
  42   22   23 1
  43   22   24 1
  44   22   48 1
  45   23   29 2
  46   24   25 1
  47   24   28 1
  48   24   49 1
  49   25   26 1
  50   25   50 1
  51   25   51 1
  52   26   27 1
  53   26   52 1
  54   26   53 1
  55   27   28 1
  56   27   54 1
  57   27   55 1
  58   28   56 1
  59   28   57 1
  60   30   58 1
  61   30   59 1
  62   30   60 1
  63   31   61 1
  64   31   62 1
  65   31   63 1
  66   32   64 1
  67   32   65 1
  68   32   66 1
  69   33   34 2
  70   33   35 1
  71   35   67 1

#	End of record

