#	Name: ASD04530015
#	Creating user name:	WinNT
#	Creation time:	15. 06. 2019 20:49

#	Modifying user name:	WinNT
#	Modification time:	15. 06. 2019 20:49

#	Program:	/corina/corina34_cracker 3.40 0067  02.08.2006

@<TRIPOS>MOLECULE
ASD04530015
  20   21    0    0    0
SMALL
NO_CHARGES


@<TRIPOS>ATOM
   1 C1            -0.0167     1.3789     0.0096 C.ar    
   2 C2             0.0021    -0.0041     0.0020 C.ar    
   3 C3             1.2062    -0.6850    -0.0131 C.ar    
   4 C4             2.3973     0.0138    -0.0203 C.ar    
   5 C5             2.3839     1.4089    -0.0126 C.ar    
   6 C6             1.1674     2.0884     0.0021 C.ar    
   7 C7             3.6593     2.1657    -0.0197 C.2     
   8 C8             3.6984     3.5090    -0.0129 C.2     
   9 S9             5.3865     4.0135    -0.0243 S.3     
  10 C10            5.8936     2.3273    -0.0376 C.2     
  11 N11            4.8468     1.5616    -0.0277 N.2     
  12 N12            7.2071     1.8869    -0.0509 N.pl3   
  13 Cl13           3.9078    -0.8416    -0.0381 Cl      
  14 H14           -0.9599     1.9049     0.0169 H       
  15 H15           -0.9271    -0.5546     0.0083 H       
  16 H16            1.2148    -1.7649    -0.0190 H       
  17 H17            1.1509     3.1683     0.0077 H       
  18 H18            2.8418     4.1667    -0.0027 H       
  19 H19            7.9340     2.5291    -0.0532 H       
  20 H20            7.3998     0.9362    -0.0580 H       
@<TRIPOS>BOND
   1    1    2 ar
   2    1    6 ar
   3    1   14 1
   4    2    3 ar
   5    2   15 1
   6    3    4 ar
   7    3   16 1
   8    4    5 ar
   9    4   13 1
  10    5    6 ar
  11    5    7 1
  12    6   17 1
  13    7    8 2
  14    7   11 1
  15    8    9 1
  16    8   18 1
  17    9   10 1
  18   10   11 2
  19   10   12 1
  20   12   19 1
  21   12   20 1

#	End of record

