#	Name: ASD09116332
#	Creating user name:	WinNT
#	Creation time:	15. 06. 2019 21:21

#	Modifying user name:	WinNT
#	Modification time:	15. 06. 2019 21:21

#	Program:	/corina/corina34_cracker 3.40 0067  02.08.2006

@<TRIPOS>MOLECULE
ASD09116332
  66   71    0    0    0
SMALL
NO_CHARGES


@<TRIPOS>ATOM
   1 N1            -0.0295     1.4180     0.1441 N.2     
   2 N2            -0.0207     0.0190     0.2642 N.pl3   
   3 C3             1.2225     1.8076     0.1149 C.2     
   4 N4             2.0156     0.7340     0.2097 N.2     
   5 C5             1.2803    -0.3534     0.3006 C.2     
   6 N6             1.7527    -1.6472     0.4128 N.pl3   
   7 C7            -1.1333    -0.8214     0.3330 C.ar    
   8 N8             1.6572     3.1283     0.0030 N.pl3   
   9 C9             3.0216     3.4263     0.0973 C.ar    
  10 C10            3.5417     4.5221    -0.5796 C.ar    
  11 C11            3.8544     2.6302     0.8720 C.ar    
  12 C12            5.2011     2.9248     0.9658 C.ar    
  13 C13            5.7219     4.0151     0.2869 C.ar    
  14 C14            4.8893     4.8156    -0.4854 C.ar    
  15 O15            7.0479     4.3047     0.3808 O.3     
  16 C16            7.8440     3.4427     1.1964 C.3     
  17 C17            9.2965     3.9230     1.1798 C.3     
  18 F18            5.3972     5.8784    -1.1471 F       
  19 N19           -1.0316    -2.0871    -0.0442 N.ar    
  20 N20           -2.0272    -2.8996    -0.0097 N.ar    
  21 C21           -3.2227    -2.5147     0.4075 C.ar    
  22 C22           -3.4193    -1.2020     0.8455 C.ar    
  23 C23           -2.3526    -0.3290     0.8052 C.ar    
  24 C24           -4.3844    -3.4338     0.3973 C.ar    
  25 C25           -5.5815    -3.0016    -0.1761 C.ar    
  26 C26           -5.6444    -1.6416    -0.8157 C.3     
  27 C27           -5.7425    -0.5370     0.2330 C.3     
  28 C28           -4.7610    -0.7866     1.3749 C.3     
  29 C29           -4.2971    -4.7062     0.9504 C.ar    
  30 C30           -5.4072    -5.5323     0.9456 C.ar    
  31 C31           -6.5989    -5.0905     0.3947 C.ar    
  32 C32           -6.6850    -3.8277    -0.1646 C.ar    
  33 F33           -5.3288    -6.7709     1.4793 F       
  34 N34            9.3822     5.2457     1.8132 N.3     
  35 C35           10.7869     5.6374     2.0308 C.3     
  36 C36           11.0016     6.9869     1.3138 C.3     
  37 C37            9.5639     7.5609     1.2115 C.3     
  38 C38            8.7301     6.2765     0.9777 C.3     
  39 H39            2.7079    -1.8150     0.4297 H       
  40 H40            1.1291    -2.3876     0.4746 H       
  41 H41            1.0140     3.8402    -0.1401 H       
  42 H42            2.8939     5.1441    -1.1794 H       
  43 H43            3.4495     1.7805     1.4016 H       
  44 H44            5.8483     2.3053     1.5689 H       
  45 H45            7.4672     3.4601     2.2191 H       
  46 H46            7.7931     2.4257     0.8077 H       
  47 H47            9.9192     3.2164     1.7285 H       
  48 H48            9.6451     3.9904     0.1493 H       
  49 H49           -2.4578     0.6988     1.1195 H       
  50 H50           -4.7462    -1.4869    -1.4135 H       
  51 H51           -6.5173    -1.5938    -1.4667 H       
  52 H52           -5.5145     0.4215    -0.2331 H       
  53 H53           -6.7568    -0.5094     0.6312 H       
  54 H54           -5.1523    -1.5749     2.0180 H       
  55 H55           -4.6490     0.1278     1.9576 H       
  56 H56           -3.3677    -5.0483     1.3812 H       
  57 H57           -7.4654    -5.7352     0.4014 H       
  58 H58           -7.6173    -3.4891    -0.5920 H       
  59 H59           10.9795     5.7496     3.0978 H       
  60 H60           11.4516     4.8835     1.6090 H       
  61 H61           11.6370     7.6427     1.9090 H       
  62 H62           11.4266     6.8330     0.3219 H       
  63 H63            9.2726     8.0519     2.1399 H       
  64 H64            9.4752     8.2433     0.3661 H       
  65 H65            8.7623     5.9892    -0.0733 H       
  66 H66            7.6997     6.4293     1.2988 H       
@<TRIPOS>BOND
   1    1    2 1
   2    1    3 2
   3    2    7 1
   4    2    5 1
   5    3    4 1
   6    3    8 1
   7    4    5 2
   8    5    6 1
   9    6   39 1
  10    6   40 1
  11    7   19 ar
  12    7   23 ar
  13    8    9 1
  14    8   41 1
  15    9   10 ar
  16    9   11 ar
  17   10   14 ar
  18   10   42 1
  19   11   12 ar
  20   11   43 1
  21   12   13 ar
  22   12   44 1
  23   13   14 ar
  24   13   15 1
  25   14   18 1
  26   15   16 1
  27   16   17 1
  28   16   45 1
  29   16   46 1
  30   17   34 1
  31   17   47 1
  32   17   48 1
  33   19   20 ar
  34   20   21 ar
  35   21   22 ar
  36   21   24 1
  37   22   23 ar
  38   22   28 1
  39   23   49 1
  40   24   25 ar
  41   24   29 ar
  42   25   26 1
  43   25   32 ar
  44   26   27 1
  45   26   50 1
  46   26   51 1
  47   27   28 1
  48   27   52 1
  49   27   53 1
  50   28   54 1
  51   28   55 1
  52   29   30 ar
  53   29   56 1
  54   30   31 ar
  55   30   33 1
  56   31   32 ar
  57   31   57 1
  58   32   58 1
  59   34   35 1
  60   34   38 1
  61   35   36 1
  62   35   59 1
  63   35   60 1
  64   36   37 1
  65   36   61 1
  66   36   62 1
  67   37   38 1
  68   37   63 1
  69   37   64 1
  70   38   65 1
  71   38   66 1

#	End of record

