#	Name: ASD00069100
#	Creating user name:	WinNT
#	Creation time:	15. 06. 2019 18:29

#	Modifying user name:	WinNT
#	Modification time:	15. 06. 2019 18:29

#	Program:	/corina/corina34_cracker 3.40 0067  02.08.2006

@<TRIPOS>MOLECULE
ASD00069100
  60   65    0    0    0
SMALL
NO_CHARGES


@<TRIPOS>ATOM
   1 N1            -0.0179     1.4659     0.0101 N.3     
   2 C2             0.0021    -0.0041     0.0020 C.3     
   3 C3             0.7497    -0.4921    -1.2417 C.3     
   4 O4             2.0659     0.0673    -1.2506 O.3     
   5 C5             2.0838     1.4973    -1.2437 C.3     
   6 C6             1.3496     2.0055    -0.0001 C.3     
   7 C7            -2.6150     4.9672     3.9192 C.2     
   8 N8            -2.8179     3.6536     4.2477 N.pl3   
   9 C9            -2.1802     2.8888     3.2864 C.ar    
  10 C10           -1.5980     3.7979     2.3853 C.ar    
  11 N11           -1.8974     5.0449     2.8238 N.2     
  12 C12           -0.8750     3.3148     1.2901 C.ar    
  13 C13           -0.7404     1.9516     1.1055 C.ar    
  14 C14           -1.3207     1.0582     2.0037 C.ar    
  15 C15           -2.0355     1.5235     3.0867 C.ar    
  16 N16           -4.1564     7.3653     6.2082 N.pl3   
  17 N17           -3.8551     6.0704     5.7744 N.2     
  18 C18           -3.1314     6.1222     4.6798 C.2     
  19 C19           -2.9294     7.5384     4.3509 C.ar    
  20 C20           -2.2593     8.2095     3.3256 C.ar    
  21 C21           -2.2578     9.5749     3.2995 C.ar    
  22 C22           -2.9167    10.3012     4.2833 C.ar    
  23 C23           -3.5787     9.6663     5.2957 C.ar    
  24 C24           -3.5964     8.2742     5.3467 C.ar    
  25 C25            0.8437    -2.0190    -1.2149 C.3     
  26 C26           -6.4317     7.4402     7.1044 C.3     
  27 C27           -4.9506     7.6987     7.3932 C.3     
  28 O28           -4.5320     6.8861     8.4916 O.3     
  29 C29           -5.2287     7.1496     9.7112 C.3     
  30 C30           -6.7210     6.8690     9.5155 C.3     
  31 C31           -7.2487     7.7336     8.3665 C.3     
  32 N32           -1.5475    10.2871     2.2136 N.pl3   
  33 O33           -0.9677     9.6555     1.3485 O.2     
  34 O34           -1.5428    11.5048     2.1852 O.2     
  35 H35            0.5087    -0.3661     0.8967 H       
  36 H36           -1.0202    -0.3818    -0.0162 H       
  37 H37            0.2136    -0.1754    -2.1363 H       
  38 H38            3.1155     1.8483    -1.2262 H       
  39 H39            1.5864     1.8718    -2.1384 H       
  40 H40            1.3110     3.0946    -0.0198 H       
  41 H41            1.8778     1.6756     0.8946 H       
  42 H42           -3.3152     3.3212     5.0113 H       
  43 H43           -0.4238     4.0039     0.5915 H       
  44 H44           -1.2100    -0.0051     1.8504 H       
  45 H45           -2.4828     0.8257     3.7791 H       
  46 H46           -1.7445     7.6515     2.5575 H       
  47 H47           -2.9052    11.3806     4.2477 H       
  48 H48           -4.0870    10.2422     6.0549 H       
  49 H49           -0.1597    -2.4446    -1.2042 H       
  50 H50            1.3761    -2.3658    -2.1006 H       
  51 H51            1.3817    -2.3343    -0.3209 H       
  52 H52           -6.7641     8.0911     6.2958 H       
  53 H53           -6.5699     6.3985     6.8150 H       
  54 H54           -4.8071     8.7499     7.6430 H       
  55 H55           -4.8381     6.5059    10.4993 H       
  56 H56           -5.0888     8.1936     9.9915 H       
  57 H57           -6.8651     5.8158     9.2748 H       
  58 H58           -7.2603     7.1114    10.4312 H       
  59 H59           -7.1502     8.7872     8.6279 H       
  60 H60           -8.2974     7.4982     8.1849 H       
@<TRIPOS>BOND
   1    1    2 1
   2    1    6 1
   3    1   13 1
   4    2    3 1
   5    2   35 1
   6    2   36 1
   7    3    4 1
   8    3   25 1
   9    3   37 1
  10    4    5 1
  11    5    6 1
  12    5   38 1
  13    5   39 1
  14    6   40 1
  15    6   41 1
  16    7    8 1
  17    7   11 2
  18    7   18 1
  19    8    9 1
  20    8   42 1
  21    9   10 ar
  22    9   15 ar
  23   10   11 1
  24   10   12 ar
  25   12   13 ar
  26   12   43 1
  27   13   14 ar
  28   14   15 ar
  29   14   44 1
  30   15   45 1
  31   16   17 1
  32   16   24 1
  33   16   27 1
  34   17   18 2
  35   18   19 1
  36   19   20 ar
  37   19   24 ar
  38   20   21 ar
  39   20   46 1
  40   21   22 ar
  41   21   32 1
  42   22   23 ar
  43   22   47 1
  44   23   24 ar
  45   23   48 1
  46   25   49 1
  47   25   50 1
  48   25   51 1
  49   26   27 1
  50   26   31 1
  51   26   52 1
  52   26   53 1
  53   27   28 1
  54   27   54 1
  55   28   29 1
  56   29   30 1
  57   29   55 1
  58   29   56 1
  59   30   31 1
  60   30   57 1
  61   30   58 1
  62   31   59 1
  63   31   60 1
  64   32   33 2
  65   32   34 2

#	End of record

