#	Name: ASD03092071
#	Creating user name:	WinNT
#	Creation time:	15. 06. 2019 20:31

#	Modifying user name:	WinNT
#	Modification time:	15. 06. 2019 20:31

#	Program:	/corina/corina34_cracker 3.40 0067  02.08.2006

@<TRIPOS>MOLECULE
ASD03092071
  43   45    0    0    0
SMALL
NO_CHARGES


@<TRIPOS>ATOM
   1 N1             0.3193     1.0057    -0.2062 N.pl3   
   2 C2             0.0432    -0.3016     0.0646 C.2     
   3 C3            -1.3153    -0.4432     0.0564 C.2     
   4 C4            -1.8745     0.8093    -0.2264 C.2     
   5 N5            -0.8989     1.6752    -0.3776 N.2     
   6 N6            -3.2423     1.0917    -0.3253 N.pl3   
   7 C7            -3.6732     2.4107    -0.4985 C.ar    
   8 C8            -4.8619     2.6718    -1.1676 C.ar    
   9 C9            -5.2858     3.9754    -1.3371 C.ar    
  10 C10           -4.5264     5.0215    -0.8410 C.ar    
  11 C11           -2.9158     3.4616     0.0034 C.ar    
  12 C12            1.0332    -1.3706     0.3205 C.ar    
  13 C13            1.6531     1.6051    -0.2957 C.3     
  14 C14            0.7044    -2.7168     0.1259 C.ar    
  15 C15            1.6582    -3.6812     0.3766 C.ar    
  16 N16            2.8648    -3.3483     0.7939 N.ar    
  17 C17            3.2159    -2.0914     0.9901 C.ar    
  18 C18            2.3266    -1.0633     0.7584 C.ar    
  19 C19            4.6098    -1.7750     1.4677 C.3     
  20 O20            1.6671     2.5825    -1.3381 O.3     
  21 C21           -3.3407     4.7635    -0.1735 C.ar    
  22 C22            2.0020     2.2741     1.0354 C.3     
  23 F23           -4.9425     6.2958    -1.0088 F       
  24 C24           -6.5755     4.2594    -2.0630 C.3     
  25 F25           -7.1584     3.0536    -2.4672 F       
  26 F26           -7.4517     4.9377    -1.2090 F       
  27 F27           -6.3137     5.0506    -3.1867 F       
  28 H28           -1.8609    -1.3578     0.2358 H       
  29 H29           -3.8910     0.3724    -0.2736 H       
  30 H30           -5.4542     1.8562    -1.5553 H       
  31 H31           -1.9932     3.2607     0.5276 H       
  32 H32            2.3862     0.8290    -0.5155 H       
  33 H33           -0.2815    -2.9965    -0.2152 H       
  34 H34            1.4139    -4.7229     0.2297 H       
  35 H35            2.6208    -0.0370     0.9211 H       
  36 H36            5.2656    -1.6359     0.6082 H       
  37 H37            4.5915    -0.8617     2.0623 H       
  38 H38            4.9804    -2.5986     2.0780 H       
  39 H39            1.0377     3.3051    -1.2082 H       
  40 H40           -2.7500     5.5811     0.2127 H       
  41 H41            1.9913     1.5285     1.8305 H       
  42 H42            2.9944     2.7200     0.9688 H       
  43 H43            1.2689     3.0502     1.2551 H       
@<TRIPOS>BOND
   1    1    2 1
   2    1   13 1
   3    1    5 1
   4    2    3 2
   5    2   12 1
   6    3    4 1
   7    3   28 1
   8    4    5 2
   9    4    6 1
  10    6    7 1
  11    6   29 1
  12    7    8 ar
  13    7   11 ar
  14    8    9 ar
  15    8   30 1
  16    9   10 ar
  17    9   24 1
  18   10   21 ar
  19   10   23 1
  20   11   21 ar
  21   11   31 1
  22   12   14 ar
  23   12   18 ar
  24   13   20 1
  25   13   22 1
  26   13   32 1
  27   14   15 ar
  28   14   33 1
  29   15   16 ar
  30   15   34 1
  31   16   17 ar
  32   17   18 ar
  33   17   19 1
  34   18   35 1
  35   19   36 1
  36   19   37 1
  37   19   38 1
  38   20   39 1
  39   21   40 1
  40   22   41 1
  41   22   42 1
  42   22   43 1
  43   24   25 1
  44   24   26 1
  45   24   27 1

#	End of record

