#	Name: ASD07300690
#	Creating user name:	WinNT
#	Creation time:	15. 06. 2019 21:10

#	Modifying user name:	WinNT
#	Modification time:	15. 06. 2019 21:10

#	Program:	/corina/corina34_cracker 3.40 0067  02.08.2006

@<TRIPOS>MOLECULE
ASD07300690
  39   42    0    0    0
SMALL
NO_CHARGES


@<TRIPOS>ATOM
   1 C1            -0.0173     1.4132    -0.0101 C.2     
   2 C2             0.0021    -0.0041     0.0020 C.2     
   3 N3             1.1775     2.0869    -0.0172 N.pl3   
   4 N4             1.1570    -0.6390     0.0061 N.2     
   5 C5             2.3156     0.0276    -0.0010 C.2     
   6 C6             2.3481     1.3754    -0.0130 C.2     
   7 N7            -0.9988     2.3008    -0.0112 N.2     
   8 C8            -0.4884     3.5283    -0.0246 C.2     
   9 C9             0.8863     3.4239    -0.0279 C.2     
  10 N10           -1.1861    -0.7177     0.0100 N.pl3   
  11 C11           -1.1896    -2.1845    -0.1073 C.3     
  12 C12           -2.0522    -2.7579     1.0227 C.3     
  13 O13           -3.3301    -2.1170     1.0109 O.3     
  14 C14           -3.2811    -0.7092     1.2547 C.3     
  15 C15           -2.4810    -0.0314     0.1422 C.3     
  16 C16           -1.2767     4.8127    -0.0302 C.3     
  17 C17            2.9642     4.5230     0.8109 C.ar    
  18 C18            1.8564     4.5388    -0.0380 C.ar    
  19 C19            1.6797     5.6281    -0.8997 C.ar    
  20 C20            2.6162     6.6458    -0.8711 C.ar    
  21 C21            3.6884     6.5557     0.0006 C.ar    
  22 N22            3.8293     5.5160     0.8019 N.ar    
  23 Cl23           4.8666     7.8301     0.0398 Cl      
  24 H24            3.2439    -0.5243     0.0030 H       
  25 H25            3.2957     1.8934    -0.0184 H       
  26 H26           -1.6072    -2.4747    -1.0714 H       
  27 H27           -0.1709    -2.5622    -0.0194 H       
  28 H28           -2.1812    -3.8300     0.8742 H       
  29 H29           -1.5637    -2.5785     1.9805 H       
  30 H30           -4.2941    -0.3074     1.2730 H       
  31 H31           -2.7971    -0.5223     2.2133 H       
  32 H32           -2.3172     1.0161     0.3953 H       
  33 H33           -3.0310    -0.1011    -0.7963 H       
  34 H34           -1.4597     5.1311     0.9960 H       
  35 H35           -0.7117     5.5835    -0.5545 H       
  36 H36           -2.2287     4.6525    -0.5363 H       
  37 H37            3.1110     3.6913     1.4841 H       
  38 H38            0.8340     5.6726    -1.5700 H       
  39 H39            2.5124     7.5014    -1.5219 H       
@<TRIPOS>BOND
   1    1    2 1
   2    1    3 1
   3    1    7 2
   4    2    4 2
   5    2   10 1
   6    3    6 1
   7    3    9 1
   8    4    5 1
   9    5    6 2
  10    5   24 1
  11    6   25 1
  12    7    8 1
  13    8    9 2
  14    8   16 1
  15    9   18 1
  16   10   11 1
  17   10   15 1
  18   11   12 1
  19   11   26 1
  20   11   27 1
  21   12   13 1
  22   12   28 1
  23   12   29 1
  24   13   14 1
  25   14   15 1
  26   14   30 1
  27   14   31 1
  28   15   32 1
  29   15   33 1
  30   16   34 1
  31   16   35 1
  32   16   36 1
  33   17   18 ar
  34   17   22 ar
  35   17   37 1
  36   18   19 ar
  37   19   20 ar
  38   19   38 1
  39   20   21 ar
  40   20   39 1
  41   21   22 ar
  42   21   23 1

#	End of record

