#	Name: ASD01884893
#	Creating user name:	WinNT
#	Creation time:	15. 06. 2019 19:49

#	Modifying user name:	WinNT
#	Modification time:	15. 06. 2019 19:49

#	Program:	/corina/corina34_cracker 3.40 0067  02.08.2006

@<TRIPOS>MOLECULE
ASD01884893
  44   49    0    0    0
SMALL
NO_CHARGES


@<TRIPOS>ATOM
   1 N1            -0.0157     1.3097     0.0092 N.ar    
   2 C2             0.0021    -0.0041     0.0020 C.ar    
   3 C3             1.2055    -0.7163    -0.0133 C.ar    
   4 C4             2.4100    -0.0137    -0.0210 C.ar    
   5 C5             2.3540     1.3799    -0.0130 C.ar    
   6 C6             1.1020     2.0258     0.0024 C.ar    
   7 C7             3.3620     2.4423    -0.0165 C.2     
   8 C8             2.6982     3.6086    -0.0036 C.2     
   9 N9             1.3487     3.3776     0.0077 N.pl3   
  10 C10            1.2007    -2.1983    -0.0207 C.2     
  11 C11            0.6838    -2.8889    -1.1004 C.2     
  12 C12            1.7311    -2.9204     1.0758 C.2     
  13 C13            1.7263    -4.2666     1.0670 C.2     
  14 N14            1.2134    -4.9571     0.0069 N.pl3   
  15 C15            0.6936    -4.2940    -1.0786 C.2     
  16 C16            0.1176    -2.1464    -2.2832 C.3     
  17 C17            1.0793    -6.2838    -0.2692 C.2     
  18 N18            0.5113    -6.3866    -1.4429 N.2     
  19 N19            0.2794    -5.2189    -1.9309 N.2     
  20 C20            0.3186     4.4191     0.0229 C.3     
  21 C21            1.5074    -7.4256     0.6163 C.3     
  22 C22            0.4260    -8.4033     1.0807 C.3     
  23 C23            1.4480    -8.8367     0.0278 C.3     
  24 C24            0.3149     5.3919     1.2038 C.3     
  25 C25            0.7740     5.8661    -0.1766 C.3     
  26 H26           -0.9324    -0.5454     0.0084 H       
  27 H27            3.3570    -0.5327    -0.0325 H       
  28 H28            4.4341     2.3122    -0.0270 H       
  29 H29            3.1600     4.5849    -0.0018 H       
  30 H30            2.1413    -2.3893     1.9221 H       
  31 H31            2.1334    -4.8069     1.9088 H       
  32 H32            0.9080    -1.9674    -3.0121 H       
  33 H33           -0.6717    -2.7418    -2.7420 H       
  34 H34           -0.2929    -1.1929    -1.9510 H       
  35 H35           -0.6460     4.1324    -0.3960 H       
  36 H36            2.3171    -7.2035     1.3114 H       
  37 H37            0.5245    -8.8247     2.0811 H       
  38 H38           -0.5950    -8.2207     0.7457 H       
  39 H39            1.0994    -8.9391    -0.9999 H       
  40 H40            2.2189    -9.5431     0.3355 H       
  41 H41           -0.6521     5.7456     1.5615 H       
  42 H42            1.0789     5.2570     1.9694 H       
  43 H43            1.8400     6.0431    -0.3191 H       
  44 H44            0.1090     6.5316    -0.7270 H       
@<TRIPOS>BOND
   1    1    2 ar
   2    1    6 ar
   3    2    3 ar
   4    2   26 1
   5    3    4 ar
   6    3   10 1
   7    4    5 ar
   8    4   27 1
   9    5    6 ar
  10    5    7 1
  11    6    9 1
  12    7    8 2
  13    7   28 1
  14    8    9 1
  15    8   29 1
  16    9   20 1
  17   10   11 2
  18   10   12 1
  19   11   16 1
  20   11   15 1
  21   12   13 2
  22   12   30 1
  23   13   14 1
  24   13   31 1
  25   14   15 1
  26   14   17 1
  27   15   19 2
  28   16   32 1
  29   16   33 1
  30   16   34 1
  31   17   18 2
  32   17   21 1
  33   18   19 1
  34   20   24 1
  35   20   25 1
  36   20   35 1
  37   21   22 1
  38   21   23 1
  39   21   36 1
  40   22   23 1
  41   22   37 1
  42   22   38 1
  43   23   39 1
  44   23   40 1
  45   24   25 1
  46   24   41 1
  47   24   42 1
  48   25   43 1
  49   25   44 1

#	End of record

