#	Name: ASD01150968
#	Creating user name:	WinNT
#	Creation time:	15. 06. 2019 19:05

#	Modifying user name:	WinNT
#	Modification time:	15. 06. 2019 19:05

#	Program:	/corina/corina34_cracker 3.40 0067  02.08.2006

@<TRIPOS>MOLECULE
ASD01150968
  28   27    0    0    0
SMALL
NO_CHARGES


@<TRIPOS>ATOM
   1 C1            -0.0184     1.5028     0.0103 C.3     
   2 C2             0.0021    -0.0041     0.0020 C.2     
   3 C3             1.4170     2.0324    -0.0006 C.3     
   4 C4            -0.7584     2.0096    -1.2292 C.3     
   5 N5             0.6044    -0.6754     1.0035 N.am    
   6 O6            -0.5235    -0.6127    -0.9059 O.2     
   7 C7             0.6242    -2.1402     0.9955 C.3     
   8 C8             1.8025    -2.6310     1.7966 C.2     
   9 C9            -0.6211    -2.6511     1.5912 C.1     
  10 N10           -1.5822    -3.0454     2.0509 N.1     
  11 O11            2.0227    -3.9486     1.9281 O.3     
  12 O12            2.5491    -1.8385     2.3205 O.2     
  13 C13            3.1763    -4.3490     2.7136 C.3     
  14 C14            3.2631    -5.8761     2.7505 C.3     
  15 H15           -0.5286     1.8543     0.9071 H       
  16 H16            1.9442     1.6713     0.8825 H       
  17 H17            1.9272     1.6808    -0.8974 H       
  18 H18            1.4022     3.1222     0.0054 H       
  19 H19           -1.7809     1.6323    -1.2215 H       
  20 H20           -0.7731     3.0995    -1.2232 H       
  21 H21           -0.2482     1.6581    -2.1260 H       
  22 H22            1.0247    -0.1886     1.7297 H       
  23 H23            0.7090    -2.4968    -0.0310 H       
  24 H24            4.0819    -3.9445     2.2615 H       
  25 H25            3.0750    -3.9662     3.7292 H       
  26 H26            2.3575    -6.2806     3.2027 H       
  27 H27            3.3644    -6.2589     1.7350 H       
  28 H28            4.1291    -6.1767     3.3402 H       
@<TRIPOS>BOND
   1    1    2 1
   2    1    3 1
   3    1    4 1
   4    1   15 1
   5    2    5 am
   6    2    6 2
   7    3   16 1
   8    3   17 1
   9    3   18 1
  10    4   19 1
  11    4   20 1
  12    4   21 1
  13    5    7 1
  14    5   22 1
  15    7    8 1
  16    7    9 1
  17    7   23 1
  18    8   11 1
  19    8   12 2
  20    9   10 3
  21   11   13 1
  22   13   14 1
  23   13   24 1
  24   13   25 1
  25   14   26 1
  26   14   27 1
  27   14   28 1

#	End of record

