#	Name: ASD03091876
#	Creating user name:	WinNT
#	Creation time:	15. 06. 2019 20:31

#	Modifying user name:	WinNT
#	Modification time:	15. 06. 2019 20:31

#	Program:	/corina/corina34_cracker 3.40 0067  02.08.2006

@<TRIPOS>MOLECULE
ASD03091876
  49   52    0    0    0
SMALL
NO_CHARGES


@<TRIPOS>ATOM
   1 N1            -0.0103     1.4119     0.0187 N.pl3   
   2 N2            -0.0014     0.0206    -0.1720 N.2     
   3 C3             1.2571    -0.3596    -0.1267 C.2     
   4 N4             2.0255     0.7184     0.0812 N.2     
   5 C5             1.2763     1.7855     0.1699 C.2     
   6 C6            -1.1346     2.2482     0.0414 C.ar    
   7 C7            -1.1171     3.4560    -0.6433 C.ar    
   8 C8            -2.2269     4.2778    -0.6195 C.ar    
   9 C9            -3.3547     3.8988     0.0853 C.ar    
  10 C10           -3.3751     2.6966     0.7683 C.ar    
  11 C11           -2.2703     1.8680     0.7439 C.ar    
  12 C12            1.7663     3.1917     0.4014 C.3     
  13 C13            1.6930     3.5180     1.8944 C.3     
  14 C14            1.7452    -1.7523    -0.2800 C.ar    
  15 C15            0.8406    -2.7907    -0.4931 C.ar    
  16 C16            1.2996    -4.0843    -0.6350 C.ar    
  17 C17            2.6560    -4.3514    -0.5655 C.ar    
  18 C18            3.5586    -3.3236    -0.3536 C.ar    
  19 C19            3.1102    -2.0257    -0.2171 C.ar    
  20 Br20           3.2781    -6.1265    -0.7603 Br      
  21 S21           -4.7683     4.9503     0.1138 S.o2    
  22 O22           -5.4951     4.6137     1.2876 O.2     
  23 O23           -4.2976     6.2629    -0.1593 O.2     
  24 N24           -5.7248     4.5204    -1.1679 N.am    
  25 C25            2.2954     4.8770     2.1417 C.ar    
  26 C26            1.4987     6.0056     2.0921 C.ar    
  27 C27            2.0513     7.2523     2.3189 C.ar    
  28 C28            3.4004     7.3703     2.5958 C.ar    
  29 C29            4.1970     6.2416     2.6464 C.ar    
  30 C30            3.6435     4.9946     2.4238 C.ar    
  31 H31           -0.2365     3.7527    -1.1937 H       
  32 H32           -2.2138     5.2175    -1.1516 H       
  33 H33           -4.2573     2.4033     1.3179 H       
  34 H34           -2.2884     0.9273     1.2741 H       
  35 H35            2.7982     3.2776     0.0610 H       
  36 H36            1.1410     3.8904    -0.1543 H       
  37 H37            0.6514     3.5184     2.2156 H       
  38 H38            2.2467     2.7671     2.4581 H       
  39 H39           -0.2180    -2.5835    -0.5467 H       
  40 H40            0.5994    -4.8898    -0.8002 H       
  41 H41            4.6159    -3.5372    -0.2998 H       
  42 H42            3.8156    -1.2237    -0.0569 H       
  43 H43           -5.4497     3.8022    -1.7589 H       
  44 H44           -6.5601     4.9869    -1.3275 H       
  45 H45            0.4446     5.9134     1.8757 H       
  46 H46            1.4290     8.1341     2.2794 H       
  47 H47            3.8323     8.3443     2.7723 H       
  48 H48            5.2511     6.3338     2.8624 H       
  49 H49            4.2651     4.1124     2.4670 H       
@<TRIPOS>BOND
   1    1    2 1
   2    1    5 1
   3    1    6 1
   4    2    3 2
   5    3    4 1
   6    3   14 1
   7    4    5 2
   8    5   12 1
   9    6    7 ar
  10    6   11 ar
  11    7    8 ar
  12    7   31 1
  13    8    9 ar
  14    8   32 1
  15    9   10 ar
  16    9   21 1
  17   10   11 ar
  18   10   33 1
  19   11   34 1
  20   12   13 1
  21   12   35 1
  22   12   36 1
  23   13   25 1
  24   13   37 1
  25   13   38 1
  26   14   15 ar
  27   14   19 ar
  28   15   16 ar
  29   15   39 1
  30   16   17 ar
  31   16   40 1
  32   17   18 ar
  33   17   20 1
  34   18   19 ar
  35   18   41 1
  36   19   42 1
  37   21   22 2
  38   21   23 2
  39   21   24 am
  40   24   43 1
  41   24   44 1
  42   25   26 ar
  43   25   30 ar
  44   26   27 ar
  45   26   45 1
  46   27   28 ar
  47   27   46 1
  48   28   29 ar
  49   28   47 1
  50   29   30 ar
  51   29   48 1
  52   30   49 1

#	End of record

