#	Name: ASD05303046
#	Creating user name:	WinNT
#	Creation time:	15. 06. 2019 20:58

#	Modifying user name:	WinNT
#	Modification time:	15. 06. 2019 20:58

#	Program:	/corina/corina34_cracker 3.40 0067  02.08.2006

@<TRIPOS>MOLECULE
ASD05303046
  49   53    0    0    0
SMALL
NO_CHARGES


@<TRIPOS>ATOM
   1 C1            -0.0327     1.3649     0.0458 C.ar    
   2 C2            -0.0086    -0.0180     0.0363 C.ar    
   3 C3             1.1997    -0.6848     0.0077 C.ar    
   4 C4             2.3898     0.0335    -0.0105 C.ar    
   5 C5             2.3658     1.4199     0.0037 C.ar    
   6 C6             1.1486     2.0804     0.0291 C.ar    
   7 N7             3.6068    -0.6500    -0.0485 N.pl3   
   8 C8             4.7671     0.0174    -0.4458 C.ar    
   9 C9             4.8148     1.4032    -0.4390 C.ar    
  10 C10            3.6352     2.2231     0.0002 C.3     
  11 C11            5.8770    -0.7166    -0.8487 C.ar    
  12 C12            7.0278    -0.0659    -1.2458 C.ar    
  13 C13            7.0742     1.3165    -1.2422 C.ar    
  14 C14            5.9731     2.0476    -0.8412 C.ar    
  15 C15            3.6662    -2.0645     0.3282 C.3     
  16 C16            4.0442    -2.1816     1.7823 C.ar    
  17 C17            3.0703    -2.0914     2.7591 C.ar    
  18 C18            3.4171    -2.1988     4.0929 C.ar    
  19 C19            4.7378    -2.3968     4.4499 C.ar    
  20 C20            5.7116    -2.4879     3.4731 C.ar    
  21 C21            5.3642    -2.3849     2.1391 C.ar    
  22 O22            3.4819     3.3313    -0.8888 O.3     
  23 C23            3.8904     2.7441     1.3911 C.ar    
  24 C24            3.3408     3.9482     1.7897 C.ar    
  25 C25            3.5749     4.4261     3.0655 C.ar    
  26 C26            4.3583     3.6997     3.9428 C.ar    
  27 C27            4.9071     2.4952     3.5444 C.ar    
  28 C28            4.6694     2.0151     2.2701 C.ar    
  29 H29           -0.9781     1.8868     0.0620 H       
  30 H30           -0.9337    -0.5752     0.0514 H       
  31 H31            1.2205    -1.7646    -0.0001 H       
  32 H32            1.1231     3.1601     0.0359 H       
  33 H33            5.8387    -1.7959    -0.8513 H       
  34 H34            7.8906    -0.6353    -1.5585 H       
  35 H35            7.9742     1.8257    -1.5537 H       
  36 H36            6.0153     3.1267    -0.8414 H       
  37 H37            2.6910    -2.5243     0.1682 H       
  38 H38            4.4121    -2.5723    -0.2832 H       
  39 H39            2.0384    -1.9367     2.4802 H       
  40 H40            2.6562    -2.1276     4.8561 H       
  41 H41            5.0088    -2.4800     5.4921 H       
  42 H42            6.7435    -2.6423     3.7520 H       
  43 H43            6.1250    -2.4561     1.3759 H       
  44 H44            2.7386     3.9103    -0.6711 H       
  45 H45            2.7288     4.5157     1.1043 H       
  46 H46            3.1461     5.3672     3.3768 H       
  47 H47            4.5418     4.0735     4.9393 H       
  48 H48            5.5194     1.9278     4.2297 H       
  49 H49            5.0951     1.0722     1.9601 H       
@<TRIPOS>BOND
   1    1    2 ar
   2    1    6 ar
   3    1   29 1
   4    2    3 ar
   5    2   30 1
   6    3    4 ar
   7    3   31 1
   8    4    5 ar
   9    4    7 1
  10    5    6 ar
  11    5   10 1
  12    6   32 1
  13    7    8 1
  14    7   15 1
  15    8    9 ar
  16    8   11 ar
  17    9   10 1
  18    9   14 ar
  19   10   22 1
  20   10   23 1
  21   11   12 ar
  22   11   33 1
  23   12   13 ar
  24   12   34 1
  25   13   14 ar
  26   13   35 1
  27   14   36 1
  28   15   16 1
  29   15   37 1
  30   15   38 1
  31   16   17 ar
  32   16   21 ar
  33   17   18 ar
  34   17   39 1
  35   18   19 ar
  36   18   40 1
  37   19   20 ar
  38   19   41 1
  39   20   21 ar
  40   20   42 1
  41   21   43 1
  42   22   44 1
  43   23   24 ar
  44   23   28 ar
  45   24   25 ar
  46   24   45 1
  47   25   26 ar
  48   25   46 1
  49   26   27 ar
  50   26   47 1
  51   27   28 ar
  52   27   48 1
  53   28   49 1

#	End of record

