#	Name: ASD00071019
#	Creating user name:	WinNT
#	Creation time:	15. 06. 2019 18:30

#	Modifying user name:	WinNT
#	Modification time:	15. 06. 2019 18:30

#	Program:	/corina/corina34_cracker 3.40 0067  02.08.2006

@<TRIPOS>MOLECULE
ASD00071019
  40   42    0    0    0
SMALL
NO_CHARGES


@<TRIPOS>ATOM
   1 N1             1.8336     1.2422    -1.2032 N.ar    
   2 C2             1.6397    -0.0603    -1.1902 C.ar    
   3 C3             1.3733    -0.7508     0.0011 C.ar    
   4 C4             1.3113    -0.0713     1.1800 C.ar    
   5 C5             1.5203     1.3231     1.1594 C.ar    
   6 C6             1.4700     2.0840     2.3371 C.ar    
   7 C7             1.6767     3.4304     2.2792 C.ar    
   8 C8             1.9375     4.0610     1.0642 C.ar    
   9 C9             1.9931     3.3518    -0.0967 C.ar    
  10 C10            1.7848     1.9625    -0.0763 C.ar    
  11 N11            1.6997    -0.7658    -2.3829 N.pl3   
  12 C12            1.1557    -2.2418    -0.0231 C.3     
  13 C13            1.0246    -2.7533     1.3884 C.ar    
  14 C14           -0.2274    -2.8632     1.9737 C.ar    
  15 C15           -0.3454    -3.3345     3.2736 C.ar    
  16 C16            0.7835    -3.6940     3.9845 C.ar    
  17 C17            2.0324    -3.5854     3.4035 C.ar    
  18 C18            2.1553    -3.1201     2.1018 C.ar    
  19 O19            3.3834    -3.0187     1.5289 O.3     
  20 C20            4.5041    -3.4143     2.3224 C.3     
  21 O21           -1.3380    -2.5093     1.2751 O.3     
  22 C22           -2.5948    -2.6486     1.9407 C.3     
  23 Cl23           1.6136     4.3709     3.7370 Cl      
  24 H24            1.1069    -0.5872     2.1066 H       
  25 H25            1.2683     1.6059     3.2842 H       
  26 H26            2.0977     5.1289     1.0431 H       
  27 H27            2.1967     3.8555    -1.0301 H       
  28 H28            1.8010    -0.2910    -3.2227 H       
  29 H29            1.6405    -1.7340    -2.3773 H       
  30 H30            0.2445    -2.4671    -0.5772 H       
  31 H31            2.0042    -2.7251    -0.5073 H       
  32 H32           -1.3205    -3.4199     3.7300 H       
  33 H33            0.6896    -4.0602     4.9962 H       
  34 H34            2.9134    -3.8670     3.9612 H       
  35 H35            4.5484    -2.7989     3.2210 H       
  36 H36            4.3980    -4.4618     2.6044 H       
  37 H37            5.4207    -3.2839     1.7472 H       
  38 H38           -2.7445    -3.6915     2.2200 H       
  39 H39           -2.6022    -2.0279     2.8366 H       
  40 H40           -3.3965    -2.3327     1.2731 H       
@<TRIPOS>BOND
   1    1    2 ar
   2    1   10 ar
   3    2    3 ar
   4    2   11 1
   5    3    4 ar
   6    3   12 1
   7    4    5 ar
   8    4   24 1
   9    5    6 ar
  10    5   10 ar
  11    6    7 ar
  12    6   25 1
  13    7    8 ar
  14    7   23 1
  15    8    9 ar
  16    8   26 1
  17    9   10 ar
  18    9   27 1
  19   11   28 1
  20   11   29 1
  21   12   13 1
  22   12   30 1
  23   12   31 1
  24   13   14 ar
  25   13   18 ar
  26   14   15 ar
  27   14   21 1
  28   15   16 ar
  29   15   32 1
  30   16   17 ar
  31   16   33 1
  32   17   18 ar
  33   17   34 1
  34   18   19 1
  35   19   20 1
  36   20   35 1
  37   20   36 1
  38   20   37 1
  39   21   22 1
  40   22   38 1
  41   22   39 1
  42   22   40 1

#	End of record

