#	Name: ASD01914809
#	Creating user name:	WinNT
#	Creation time:	15. 06. 2019 20:04

#	Modifying user name:	WinNT
#	Modification time:	15. 06. 2019 20:04

#	Program:	/corina/corina34_cracker 3.40 0067  02.08.2006

@<TRIPOS>MOLECULE
ASD01914809
  41   42    0    0    0
SMALL
NO_CHARGES


@<TRIPOS>ATOM
   1 C1             0.6455    -0.8706    -1.4926 C.3     
   2 C2            -0.4256    -0.0548    -0.8276 C.2     
   3 C3            -0.5198     1.2506    -0.9608 C.2     
   4 C4             0.4356     2.0517    -1.8008 C.3     
   5 C5             1.6881     1.2211    -2.0918 C.3     
   6 N6             1.2683    -0.1033    -2.5785 N.3     
   7 C7             2.4028    -0.8356    -3.1571 C.3     
   8 N8            -3.1510    -1.2007     1.3084 N.pl3   
   9 N9            -2.4619    -0.2057     0.6081 N.2     
  10 C10           -1.4197    -0.7502     0.0145 C.2     
  11 C11           -1.4339    -2.1766     0.3484 C.2     
  12 C12           -2.5237    -2.3815     1.1451 C.2     
  13 C13           -0.4588    -3.1955    -0.0920 C.2     
  14 C14           -0.7519    -4.4842     0.0164 C.2     
  15 C15            0.2427    -5.5235    -0.4328 C.3     
  16 C16            0.5251    -6.4906     0.7187 C.3     
  17 C17            1.5348    -7.5457     0.2626 C.3     
  18 C18            1.8171    -8.5128     1.4141 C.3     
  19 H19            1.4048    -1.1374    -0.7575 H       
  20 H20            0.2054    -1.7808    -1.9001 H       
  21 H21           -1.3161     1.7678    -0.4461 H       
  22 H22           -0.0465     2.3221    -2.7403 H       
  23 H23            0.7177     2.9578    -1.2648 H       
  24 H24            2.2879     1.7181    -2.8542 H       
  25 H25            2.2724     1.1077    -1.1786 H       
  26 H26            2.0546    -1.7878    -3.5572 H       
  27 H27            2.8457    -0.2448    -3.9590 H       
  28 H28            3.1499    -1.0174    -2.3846 H       
  29 H29           -3.9542    -1.0614     1.8341 H       
  30 H30           -2.8293    -3.3259     1.5706 H       
  31 H31            0.4927    -2.8908    -0.5022 H       
  32 H32           -1.7033    -4.7890     0.4266 H       
  33 H33           -0.1660    -6.0757    -1.2791 H       
  34 H34            1.1696    -5.0341    -0.7319 H       
  35 H35            0.9338    -5.9384     1.5649 H       
  36 H36           -0.4019    -6.9800     1.0177 H       
  37 H37            1.1261    -8.0979    -0.5836 H       
  38 H38            2.4617    -7.0563    -0.0364 H       
  39 H39            2.2259    -7.9606     2.2604 H       
  40 H40            0.8902    -9.0022     1.7132 H       
  41 H41            2.5365    -9.2645     1.0892 H       
@<TRIPOS>BOND
   1    1    2 1
   2    1    6 1
   3    1   19 1
   4    1   20 1
   5    2    3 2
   6    2   10 1
   7    3    4 1
   8    3   21 1
   9    4    5 1
  10    4   22 1
  11    4   23 1
  12    5    6 1
  13    5   24 1
  14    5   25 1
  15    6    7 1
  16    7   26 1
  17    7   27 1
  18    7   28 1
  19    8    9 1
  20    8   12 1
  21    8   29 1
  22    9   10 2
  23   10   11 1
  24   11   12 2
  25   11   13 1
  26   12   30 1
  27   13   14 2
  28   13   31 1
  29   14   15 1
  30   14   32 1
  31   15   16 1
  32   15   33 1
  33   15   34 1
  34   16   17 1
  35   16   35 1
  36   16   36 1
  37   17   18 1
  38   17   37 1
  39   17   38 1
  40   18   39 1
  41   18   40 1
  42   18   41 1

#	End of record

