#	Name: ASD01903269
#	Creating user name:	WinNT
#	Creation time:	15. 06. 2019 19:54

#	Modifying user name:	WinNT
#	Modification time:	15. 06. 2019 19:54

#	Program:	/corina/corina34_cracker 3.40 0067  02.08.2006

@<TRIPOS>MOLECULE
ASD01903269
  39   42    0    0    0
SMALL
NO_CHARGES


@<TRIPOS>ATOM
   1 C1             0.0313     1.3112     0.0786 C.ar    
   2 C2            -1.0992     1.6197    -0.6607 C.ar    
   3 C3            -1.0985     2.7497    -1.4638 C.ar    
   4 C4             0.0422     3.5357    -1.4980 C.ar    
   5 C5             1.1428     3.1650    -0.7282 C.ar    
   6 N6             1.1010     2.0748     0.0277 N.ar    
   7 C7             2.3698     3.9945    -0.7536 C.2     
   8 O8             2.4135     4.9938    -1.4440 O.2     
   9 N9             3.4376     3.6411    -0.0111 N.am    
  10 C10            4.6294     4.3682    -0.1089 C.ar    
  11 C11            4.5903     5.7425    -0.3042 C.ar    
  12 C12            5.7659     6.4608    -0.4008 C.ar    
  13 C13            6.9873     5.8098    -0.3033 C.ar    
  14 C14            7.0280     4.4335    -0.1078 C.ar    
  15 C15            5.8515     3.7159    -0.0050 C.ar    
  16 N16            8.1821     6.5397    -0.4078 N.am    
  17 C17            8.8305     7.0914     0.6337 C.2     
  18 C18           10.0390     7.7725     0.1291 C.ar    
  19 C19           10.0394     7.5745    -1.2674 C.ar    
  20 C20            8.8321     6.7744    -1.5620 C.2     
  21 O21            8.4797     7.0385     1.7955 O.2     
  22 O22            8.4818     6.3982    -2.6624 O.2     
  23 C23           12.0832     9.0182    -0.0646 C.ar    
  24 C24           12.0810     8.8219    -1.4313 C.ar    
  25 C25           11.0623     8.1018    -2.0378 C.ar    
  26 F26            8.2171     3.7992    -0.0133 F       
  27 C27           11.0644     8.4955     0.7234 C.ar    
  28 F28           11.0718     8.6904     2.0602 F       
  29 H29            0.0326     0.4341     0.7088 H       
  30 H30           -1.9722     0.9858    -0.6120 H       
  31 H31           -1.9672     3.0112    -2.0498 H       
  32 H32            0.0778     4.4229    -2.1129 H       
  33 H33            3.3801     2.8828     0.5910 H       
  34 H34            3.6400     6.2499    -0.3809 H       
  35 H35            5.7345     7.5296    -0.5526 H       
  36 H36            5.8821     2.6471     0.1472 H       
  37 H37           12.8822     9.5809     0.3953 H       
  38 H38           12.8780     9.2332    -2.0330 H       
  39 H39           11.0670     7.9525    -3.1074 H       
@<TRIPOS>BOND
   1    1    2 ar
   2    1    6 ar
   3    1   29 1
   4    2    3 ar
   5    2   30 1
   6    3    4 ar
   7    3   31 1
   8    4    5 ar
   9    4   32 1
  10    5    6 ar
  11    5    7 1
  12    7    8 2
  13    7    9 am
  14    9   10 1
  15    9   33 1
  16   10   11 ar
  17   10   15 ar
  18   11   12 ar
  19   11   34 1
  20   12   13 ar
  21   12   35 1
  22   13   14 ar
  23   13   16 1
  24   14   15 ar
  25   14   26 1
  26   15   36 1
  27   16   17 am
  28   16   20 am
  29   17   18 1
  30   17   21 2
  31   18   19 ar
  32   18   27 ar
  33   19   20 1
  34   19   25 ar
  35   20   22 2
  36   23   24 ar
  37   23   27 ar
  38   23   37 1
  39   24   25 ar
  40   24   38 1
  41   25   39 1
  42   27   28 1

#	End of record

