#	Name: ASD03082251
#	Creating user name:	WinNT
#	Creation time:	15. 06. 2019 20:27

#	Modifying user name:	WinNT
#	Modification time:	15. 06. 2019 20:27

#	Program:	/corina/corina34_cracker 3.40 0067  02.08.2006

@<TRIPOS>MOLECULE
ASD03082251
  51   53    0    0    0
SMALL
NO_CHARGES


@<TRIPOS>ATOM
   1 N1             0.0252     1.4337    -0.1381 N.pl3   
   2 N2            -0.0162     0.0306    -0.1771 N.2     
   3 C3             1.2055    -0.3947     0.0507 C.2     
   4 N4             2.0059     0.6570     0.2293 N.2     
   5 C5             1.3090     1.7700     0.1186 C.2     
   6 N6             1.6022    -1.7325     0.0987 N.pl3   
   7 C7             2.9564    -2.0560     0.2328 C.ar    
   8 C8             3.3291    -3.2690     0.7980 C.ar    
   9 C9             4.6666    -3.5863     0.9294 C.ar    
  10 C10            5.6361    -2.6962     0.4984 C.ar    
  11 C11            5.2670    -1.4867    -0.0652 C.ar    
  12 C12            3.9302    -1.1675    -0.2040 C.ar    
  13 C13            5.0716    -4.9018     1.5429 C.3     
  14 F14            3.9266    -5.6232     1.8975 F       
  15 F15            5.8184    -5.6380     0.6169 F       
  16 F16            5.8458    -4.6656     2.6840 F       
  17 C17            1.5211     5.4889     0.6270 C.ar    
  18 C18            0.9847     4.2229     0.5108 C.ar    
  19 C19            1.8387     3.1456     0.2513 C.ar    
  20 C20            3.2074     3.4046     0.1212 C.ar    
  21 C21            3.6583     4.7020     0.2529 C.ar    
  22 N22            2.8184     5.6895     0.4972 N.ar    
  23 C23           -1.0987     2.3512    -0.3415 C.3     
  24 F24            6.9441    -3.0085     0.6284 F       
  25 C25           -1.7825     2.6079     0.9766 C.2     
  26 N26           -2.8508     3.4277     1.0331 N.am    
  27 O27           -1.3715     2.0769     1.9865 O.2     
  28 C28           -3.5155     3.6773     2.3146 C.3     
  29 C29           -2.5186     4.3012     3.2933 C.3     
  30 C30           -4.6893     4.6355     2.1021 C.3     
  31 C31           -4.0329     2.3560     2.8866 C.3     
  32 H32            0.9387    -2.4376     0.0390 H       
  33 H33            2.5734    -3.9633     1.1346 H       
  34 H34            6.0247    -0.7939    -0.4004 H       
  35 H35            3.6426    -0.2260    -0.6481 H       
  36 H36            0.8694     6.3276     0.8228 H       
  37 H37           -0.0784     4.0660     0.6186 H       
  38 H38            3.9007     2.6010    -0.0789 H       
  39 H39            4.7131     4.9120     0.1541 H       
  40 H40           -0.7301     3.2925    -0.7491 H       
  41 H41           -1.8089     1.9067    -1.0388 H       
  42 H42           -3.1795     3.8525     0.2254 H       
  43 H43           -2.1500     5.2426     2.8857 H       
  44 H44           -3.0133     4.4869     4.2467 H       
  45 H45           -1.6824     3.6186     3.4446 H       
  46 H46           -5.3995     4.1910     1.4048 H       
  47 H47           -5.1839     4.8212     3.0555 H       
  48 H48           -4.3207     5.5768     1.6945 H       
  49 H49           -3.1967     1.6734     3.0380 H       
  50 H50           -4.5275     2.5417     3.8400 H       
  51 H51           -4.7431     1.9115     2.1893 H       
@<TRIPOS>BOND
   1    1    2 1
   2    1    5 1
   3    1   23 1
   4    2    3 2
   5    3    4 1
   6    3    6 1
   7    4    5 2
   8    5   19 1
   9    6    7 1
  10    6   32 1
  11    7    8 ar
  12    7   12 ar
  13    8    9 ar
  14    8   33 1
  15    9   10 ar
  16    9   13 1
  17   10   11 ar
  18   10   24 1
  19   11   12 ar
  20   11   34 1
  21   12   35 1
  22   13   14 1
  23   13   15 1
  24   13   16 1
  25   17   18 ar
  26   17   22 ar
  27   17   36 1
  28   18   19 ar
  29   18   37 1
  30   19   20 ar
  31   20   21 ar
  32   20   38 1
  33   21   22 ar
  34   21   39 1
  35   23   25 1
  36   23   40 1
  37   23   41 1
  38   25   26 am
  39   25   27 2
  40   26   28 1
  41   26   42 1
  42   28   29 1
  43   28   30 1
  44   28   31 1
  45   29   43 1
  46   29   44 1
  47   29   45 1
  48   30   46 1
  49   30   47 1
  50   30   48 1
  51   31   49 1
  52   31   50 1
  53   31   51 1

#	End of record

