#	Name: ASD01911419
#	Creating user name:	WinNT
#	Creation time:	15. 06. 2019 19:57

#	Modifying user name:	WinNT
#	Modification time:	15. 06. 2019 19:57

#	Program:	/corina/corina34_cracker 3.40 0067  02.08.2006

@<TRIPOS>MOLECULE
ASD01911419
  29   31    0    0    0
SMALL
NO_CHARGES


@<TRIPOS>ATOM
   1 C1            -0.0167     1.3816     0.0096 C.ar    
   2 C2             0.0021    -0.0041     0.0020 C.ar    
   3 C3            -1.1829    -0.7185     0.0090 C.ar    
   4 C4            -2.3921    -0.0558     0.0241 C.ar    
   5 C5            -2.4204     1.3418     0.0324 C.ar    
   6 C6            -1.2210     2.0584     0.0305 C.ar    
   7 C7            -3.6729     2.0357     0.0481 C.1     
   8 C8            -4.6998     2.6047     0.0610 C.1     
   9 C9            -5.9523     3.2987     0.0767 C.ar    
  10 C10           -5.9788     4.6987     0.0849 C.ar    
  11 C11           -7.1730     5.3536     0.0994 C.ar    
  12 C12           -8.3755     4.6380     0.1061 C.ar    
  13 C13           -8.3479     3.2392     0.0979 C.ar    
  14 C14           -7.1528     2.5793     0.0780 C.ar    
  15 C15           -7.5472     6.8151     0.1106 C.3     
  16 N16           -9.0136     6.8626     0.1238 N.am    
  17 C17           -9.4876     5.6050     0.1212 C.2     
  18 O18          -10.6664     5.3074     0.1299 O.2     
  19 F19            1.1446     2.0718     0.0023 F       
  20 H20            0.9460    -0.5288    -0.0098 H       
  21 H21           -1.1607    -1.7983     0.0023 H       
  22 H22           -3.3157    -0.6156     0.0292 H       
  23 H23           -1.2354     3.1383     0.0369 H       
  24 H24           -5.0548     5.2578     0.0802 H       
  25 H25           -9.2725     2.6811     0.1030 H       
  26 H26           -7.1338     1.4995     0.0717 H       
  27 H27           -7.1487     7.2970     1.0034 H       
  28 H28           -7.1644     7.3067    -0.7837 H       
  29 H29           -9.5524     7.6691     0.1334 H       
@<TRIPOS>BOND
   1    1    2 ar
   2    1   19 1
   3    1    6 ar
   4    2    3 ar
   5    2   20 1
   6    3    4 ar
   7    3   21 1
   8    4    5 ar
   9    4   22 1
  10    5    6 ar
  11    5    7 1
  12    6   23 1
  13    7    8 3
  14    8    9 1
  15    9   10 ar
  16    9   14 ar
  17   10   11 ar
  18   10   24 1
  19   11   12 ar
  20   11   15 1
  21   12   13 ar
  22   12   17 1
  23   13   14 ar
  24   13   25 1
  25   14   26 1
  26   15   16 1
  27   15   27 1
  28   15   28 1
  29   16   17 am
  30   16   29 1
  31   17   18 2

#	End of record

