#	Name: ASD01900745
#	Creating user name:	WinNT
#	Creation time:	15. 06. 2019 19:52

#	Modifying user name:	WinNT
#	Modification time:	15. 06. 2019 19:52

#	Program:	/corina/corina34_cracker 3.40 0067  02.08.2006

@<TRIPOS>MOLECULE
ASD01900745
  49   53    0    0    0
SMALL
NO_CHARGES


@<TRIPOS>ATOM
   1 C1            -0.0158     1.4087    -0.1141 C.ar    
   2 C2             0.0118     0.0196    -0.1182 C.ar    
   3 C3            -1.1602    -0.7071    -0.0668 C.ar    
   4 C4            -2.3833    -0.0521    -0.0105 C.ar    
   5 C5            -2.4090     1.3491    -0.0107 C.ar    
   6 O6            -3.5357    -0.7544     0.0513 O.3     
   7 C7            -4.7270    -0.1807    -0.1895 C.2     
   8 C8            -4.9042     1.1632    -0.2053 C.2     
   9 C9            -3.7317     2.0228     0.0366 C.2     
  10 C10           -5.8905    -1.0500    -0.4479 C.2     
  11 N11           -7.0935    -0.4914    -0.6914 N.2     
  12 C12           -8.1496    -1.2292    -0.9255 C.2     
  13 C13           -8.0382    -2.6340    -0.9255 C.2     
  14 N14           -6.8080    -3.2149    -0.6766 N.pl3   
  15 C15           -5.7296    -2.4020    -0.4419 C.2     
  16 C16           -1.2277     2.0774    -0.0543 C.ar    
  17 C17           -8.9464    -3.6549    -1.1333 C.2     
  18 C18           -8.2469    -4.8579    -1.0063 C.2     
  19 C19           -6.9520    -4.5634    -0.7293 C.2     
  20 O20            1.1469     2.1118    -0.1631 O.3     
  21 C21            2.3595     1.3576    -0.2174 C.3     
  22 C22            3.5530     2.3136    -0.2672 C.3     
  23 C23            4.8317     1.5181    -0.3244 C.ar    
  24 C24            5.3658     1.1561    -1.5470 C.ar    
  25 C25            5.4727     1.1560     0.8457 C.ar    
  26 C26            6.6459     0.4273     0.7944 C.ar    
  27 C27            7.1789     0.0596    -0.4294 C.ar    
  28 C28            6.5386     0.4270    -1.6007 C.ar    
  29 F29            8.3257    -0.6527    -0.4807 F       
  30 N30           -3.8495     3.3064     0.2797 N.2     
  31 O31           -2.7123     4.0638     0.6516 O.3     
  32 H32            0.9595    -0.4964    -0.1624 H       
  33 H33           -1.1262    -1.7866    -0.0708 H       
  34 H34           -5.8780     1.5922    -0.3901 H       
  35 H35           -9.1042    -0.7621    -1.1180 H       
  36 H36           -4.7586    -2.8321    -0.2455 H       
  37 H37           -1.2538     3.1571    -0.0509 H       
  38 H38           -9.9981    -3.5439    -1.3524 H       
  39 H39           -8.6640    -5.8486    -1.1107 H       
  40 H40           -6.1634    -5.2851    -0.5756 H       
  41 H41            2.4354     0.7275     0.6688 H       
  42 H42            2.3581     0.7312    -1.1094 H       
  43 H43            3.4771     2.9436    -1.1534 H       
  44 H44            3.5543     2.9399     0.6249 H       
  45 H45            4.8661     1.4428    -2.4606 H       
  46 H46            5.0567     1.4429     1.8002 H       
  47 H47            7.1469     0.1451     1.7086 H       
  48 H48            6.9532     0.1405    -2.5559 H       
  49 H49           -2.8976     4.9996     0.8100 H       
@<TRIPOS>BOND
   1    1    2 ar
   2    1   20 1
   3    1   16 ar
   4    2    3 ar
   5    2   32 1
   6    3    4 ar
   7    3   33 1
   8    4    5 ar
   9    4    6 1
  10    5   16 ar
  11    5    9 1
  12    6    7 1
  13    7    8 2
  14    7   10 1
  15    8    9 1
  16    8   34 1
  17    9   30 2
  18   10   11 1
  19   10   15 2
  20   11   12 2
  21   12   13 1
  22   12   35 1
  23   13   14 1
  24   13   17 2
  25   14   15 1
  26   14   19 1
  27   15   36 1
  28   16   37 1
  29   17   18 1
  30   17   38 1
  31   18   19 2
  32   18   39 1
  33   19   40 1
  34   20   21 1
  35   21   22 1
  36   21   41 1
  37   21   42 1
  38   22   23 1
  39   22   43 1
  40   22   44 1
  41   23   24 ar
  42   23   25 ar
  43   24   28 ar
  44   24   45 1
  45   25   26 ar
  46   25   46 1
  47   26   27 ar
  48   26   47 1
  49   27   28 ar
  50   27   29 1
  51   28   48 1
  52   30   31 1
  53   31   49 1

#	End of record

