#	Name: ASD01917478
#	Creating user name:	WinNT
#	Creation time:	15. 06. 2019 20:09

#	Modifying user name:	WinNT
#	Modification time:	15. 06. 2019 20:09

#	Program:	/corina/corina34_cracker 3.40 0067  02.08.2006

@<TRIPOS>MOLECULE
ASD01917478
  52   55    0    0    0
SMALL
NO_CHARGES


@<TRIPOS>ATOM
   1 C1            -0.0159     1.3205     0.0093 C.ar    
   2 N2             0.0021    -0.0041     0.0020 N.ar    
   3 C3             1.1461    -0.6643    -0.0125 C.ar    
   4 C4             2.3379     0.0475    -0.0201 C.ar    
   5 C5             2.2813     1.4342    -0.0121 C.ar    
   6 N6             1.1023     2.0303     0.0024 N.ar    
   7 C7            -1.3224     2.0272     0.0193 C.2     
   8 O8            -2.3570     1.3908     0.0207 O.2     
   9 N9            -1.3598     3.3744     0.0268 N.am    
  10 C10           -2.6483     4.0713     0.0366 C.3     
  11 C11           -3.5181     3.7204    -1.1832 C.3     
  12 C12           -4.9195     4.2994    -0.9795 C.3     
  13 C13           -4.8412     5.8066    -0.7288 C.3     
  14 C14           -3.9145     6.0678     0.4715 C.3     
  15 C15           -4.2992     5.0618     1.5808 C.3     
  16 C16           -3.4813     3.7648     1.3026 C.3     
  17 C17           -2.4933     5.6152     0.0438 C.3     
  18 C18           -5.1343     7.9897     1.3406 C.2     
  19 O19           -6.1448     7.3148     1.3328 O.2     
  20 N20           -3.9661     7.4587     0.9287 N.am    
  21 C21           -5.1866     9.3962     1.8030 C.ar    
  22 C22           -6.3941     9.9477     2.2296 C.ar    
  23 N23           -4.0807    10.1350     1.8175 N.ar    
  24 N24           -6.4355    11.2020     2.6414 N.ar    
  25 C25           -5.3348    11.9330     2.6490 C.ar    
  26 C26           -4.1309    11.3858     2.2299 C.ar    
  27 C27           -5.3864    13.3637     3.1195 C.3     
  28 C28            1.1574    -2.1712    -0.0202 C.3     
  29 H29            3.2878    -0.4662    -0.0316 H       
  30 H30            3.1895     2.0186    -0.0173 H       
  31 H31           -0.5335     3.8825     0.0257 H       
  32 H32           -3.0743     4.1474    -2.0825 H       
  33 H33           -3.5825     2.6371    -1.2857 H       
  34 H34           -5.5199     4.1126    -1.8699 H       
  35 H35           -5.3889     3.8153    -0.1232 H       
  36 H36           -4.4413     6.3031    -1.6130 H       
  37 H37           -5.8371     6.1924    -0.5114 H       
  38 H38           -4.0384     5.4652     2.5592 H       
  39 H39           -5.3666     4.8455     1.5366 H       
  40 H40           -4.1550     2.9289     1.1145 H       
  41 H41           -2.8211     3.5338     2.1386 H       
  42 H42           -1.7378     5.9287     0.7642 H       
  43 H43           -2.2598     5.9892    -0.9530 H       
  44 H44           -3.1595     7.9974     0.9349 H       
  45 H45           -7.2939     9.3504     2.2231 H       
  46 H46           -3.2330    11.9858     2.2417 H       
  47 H47           -5.2006    13.4001     4.1930 H       
  48 H48           -4.6253    13.9450     2.5991 H       
  49 H49           -6.3707    13.7809     2.9069 H       
  50 H50            1.1500    -2.5294    -1.0497 H       
  51 H51            2.0550    -2.5304     0.4831 H       
  52 H52            0.2752    -2.5438     0.5004 H       
@<TRIPOS>BOND
   1    1    2 ar
   2    1    6 ar
   3    1    7 1
   4    2    3 ar
   5    3    4 ar
   6    3   28 1
   7    4    5 ar
   8    4   29 1
   9    5    6 ar
  10    5   30 1
  11    7    8 2
  12    7    9 am
  13    9   10 1
  14    9   31 1
  15   10   11 1
  16   10   16 1
  17   10   17 1
  18   11   12 1
  19   11   32 1
  20   11   33 1
  21   12   13 1
  22   12   34 1
  23   12   35 1
  24   13   14 1
  25   13   36 1
  26   13   37 1
  27   14   15 1
  28   14   17 1
  29   14   20 1
  30   15   16 1
  31   15   38 1
  32   15   39 1
  33   16   40 1
  34   16   41 1
  35   17   42 1
  36   17   43 1
  37   18   19 2
  38   18   20 am
  39   18   21 1
  40   20   44 1
  41   21   22 ar
  42   21   23 ar
  43   22   24 ar
  44   22   45 1
  45   23   26 ar
  46   24   25 ar
  47   25   26 ar
  48   25   27 1
  49   26   46 1
  50   27   47 1
  51   27   48 1
  52   27   49 1
  53   28   50 1
  54   28   51 1
  55   28   52 1

#	End of record

