#	Name: ASD01913163
#	Creating user name:	WinNT
#	Creation time:	15. 06. 2019 20:01

#	Modifying user name:	WinNT
#	Modification time:	15. 06. 2019 20:01

#	Program:	/corina/corina34_cracker 3.40 0067  02.08.2006

@<TRIPOS>MOLECULE
ASD01913163
  45   47    0    0    0
SMALL
NO_CHARGES


@<TRIPOS>ATOM
   1 C1             0.1867     1.2949     0.0946 C.ar    
   2 C2             0.1745    -0.0886     0.0889 C.ar    
   3 C3            -1.0330    -0.7701     0.0665 C.ar    
   4 C4            -2.2269    -0.0638     0.0500 C.ar    
   5 C5            -2.2127     1.3178     0.0553 C.ar    
   6 O6            -1.0468    -2.1294     0.0603 O.3     
   7 C7            -2.3264    -2.7651     0.0370 C.3     
   8 C8            -2.1414    -4.2839     0.0334 C.3     
   9 C9            -3.4908    -4.9543     0.0088 C.2     
  10 N10           -3.5750    -6.2994     0.0016 N.am    
  11 C11           -4.8818    -6.9739    -0.0224 C.3     
  12 C12           -4.8784    -8.0016    -1.1591 C.3     
  13 N13           -3.7217    -8.8938    -1.0049 N.3     
  14 C14           -2.4583    -8.1532    -1.1209 C.3     
  15 C15           -2.3624    -7.1317     0.0112 C.3     
  16 O16           -4.5011    -4.2834    -0.0045 O.2     
  17 C17           -3.7729    -9.9439    -1.9255 C.ar    
  18 C18           -2.8278   -10.0272    -2.9393 C.ar    
  19 C19           -2.8803   -11.0666    -3.8480 C.ar    
  20 C20           -3.8724   -12.0242    -3.7495 C.ar    
  21 C21           -4.8172   -11.9452    -2.7408 C.ar    
  22 C22           -4.7667   -10.9105    -1.8248 C.ar    
  23 Cl23          -5.9509   -10.8114    -0.5593 Cl      
  24 Cl24          -6.0619   -13.1494    -2.6218 Cl      
  25 F25            1.3624     1.9601     0.1165 F       
  26 C26           -1.0078     1.9986     0.0723 C.ar    
  27 F27           -0.9957     3.3495     0.0775 F       
  28 H28            1.1046    -0.6374     0.1014 H       
  29 H29           -3.1677    -0.5940     0.0326 H       
  30 H30           -3.1426     1.8670     0.0418 H       
  31 H31           -2.8946    -2.4705     0.9193 H       
  32 H32           -2.8661    -2.4627    -0.8604 H       
  33 H33           -1.5732    -4.5786    -0.8489 H       
  34 H34           -1.6017    -4.5863     0.9308 H       
  35 H35           -5.0501    -7.4800     0.9283 H       
  36 H36           -5.6694    -6.2403    -0.1943 H       
  37 H37           -5.7970    -8.5873    -1.1226 H       
  38 H38           -4.8140    -7.4847    -2.1165 H       
  39 H39           -1.6217    -8.8489    -1.0567 H       
  40 H40           -2.4276    -7.6342    -2.0789 H       
  41 H41           -1.4839    -6.5034    -0.1359 H       
  42 H42           -2.2891    -7.6504     0.9671 H       
  43 H43           -2.0523    -9.2796    -3.0178 H       
  44 H44           -2.1453   -11.1310    -4.6366 H       
  45 H45           -3.9108   -12.8355    -4.4614 H       
@<TRIPOS>BOND
   1    1    2 ar
   2    1   25 1
   3    1   26 ar
   4    2    3 ar
   5    2   28 1
   6    3    4 ar
   7    3    6 1
   8    4    5 ar
   9    4   29 1
  10    5   26 ar
  11    5   30 1
  12    6    7 1
  13    7    8 1
  14    7   31 1
  15    7   32 1
  16    8    9 1
  17    8   33 1
  18    8   34 1
  19    9   10 am
  20    9   16 2
  21   10   11 1
  22   10   15 1
  23   11   12 1
  24   11   35 1
  25   11   36 1
  26   12   13 1
  27   12   37 1
  28   12   38 1
  29   13   14 1
  30   13   17 1
  31   14   15 1
  32   14   39 1
  33   14   40 1
  34   15   41 1
  35   15   42 1
  36   17   18 ar
  37   17   22 ar
  38   18   19 ar
  39   18   43 1
  40   19   20 ar
  41   19   44 1
  42   20   21 ar
  43   20   45 1
  44   21   22 ar
  45   21   24 1
  46   22   23 1
  47   26   27 1

#	End of record

