#	Name: ASD01890460
#	Creating user name:	WinNT
#	Creation time:	15. 06. 2019 19:51

#	Modifying user name:	WinNT
#	Modification time:	15. 06. 2019 19:51

#	Program:	/corina/corina34_cracker 3.40 0067  02.08.2006

@<TRIPOS>MOLECULE
ASD01890460
  51   53    0    0    0
SMALL
NO_CHARGES


@<TRIPOS>ATOM
   1 C1            -0.0279     1.4533    -0.0226 C.2     
   2 C2            -0.0036    -0.0080    -0.0417 C.2     
   3 C3             1.1751    -0.6628    -0.1147 C.2     
   4 C4             2.4503     0.1051    -0.3496 C.3     
   5 C5             3.0819     0.4687     0.9957 C.3     
   6 O6             1.0139     2.0781     0.0391 O.2     
   7 O7            -1.2056     2.1092    -0.0792 O.3     
   8 C8             4.3571     1.2366     0.7608 C.ar    
   9 C9             4.3258     2.6153     0.6648 C.ar    
  10 C10            5.4950     3.3201     0.4494 C.ar    
  11 C11            6.6970     2.6455     0.3298 C.ar    
  12 C12            6.7278     1.2657     0.4260 C.ar    
  13 C13            5.5586     0.5624     0.6471 C.ar    
  14 Cl14           8.1660     3.5300     0.0586 Cl      
  15 C15            1.2890    -4.8781     0.3165 C.ar    
  16 C16            0.6322    -4.3068    -0.7745 C.ar    
  17 C17            0.5939    -2.9437    -0.9159 C.ar    
  18 C18            1.2143    -2.1247     0.0350 C.ar    
  19 C19            1.8725    -2.7001     1.1285 C.ar    
  20 C20            1.9082    -4.0637     1.2658 C.ar    
  21 C21            1.3237    -6.3521     0.4704 C.ar    
  22 C22            1.9787    -6.9268     1.5588 C.ar    
  23 C23            2.0078    -8.2995     1.6968 C.ar    
  24 C24            1.3891    -9.1051     0.7576 C.ar    
  25 C25            0.7381    -8.5406    -0.3246 C.ar    
  26 C26            0.6967    -7.1689    -0.4696 C.ar    
  27 C27           -1.1546     3.5372    -0.0564 C.3     
  28 C28           -2.5757     4.0994    -0.1279 C.3     
  29 H29           -0.9284    -0.5640     0.0026 H       
  30 H30            3.1445    -0.5098    -0.9224 H       
  31 H31            2.2287     1.0164    -0.9050 H       
  32 H32            2.3878     1.0837     1.5686 H       
  33 H33            3.3036    -0.4426     1.5512 H       
  34 H34            3.3874     3.1418     0.7578 H       
  35 H35            5.4704     4.3972     0.3740 H       
  36 H36            7.6657     0.7385     0.3327 H       
  37 H37            5.5831    -0.5144     0.7266 H       
  38 H38            0.1541    -4.9390    -1.5080 H       
  39 H39            0.0860    -2.5021    -1.7605 H       
  40 H40            2.3521    -2.0702     1.8632 H       
  41 H41            2.4155    -4.5080     2.1094 H       
  42 H42            2.4626    -6.2989     2.2923 H       
  43 H43            2.5148    -8.7459     2.5395 H       
  44 H44            1.4148   -10.1790     0.8695 H       
  45 H45            0.2575    -9.1745    -1.0551 H       
  46 H46            0.1840    -6.7291    -1.3123 H       
  47 H47           -0.6785     3.8691     0.8662 H       
  48 H48           -0.5794     3.8939    -0.9108 H       
  49 H49           -2.5369     5.1886    -0.1105 H       
  50 H50           -3.0518     3.7675    -1.0505 H       
  51 H51           -3.1510     3.7427     0.7265 H       
@<TRIPOS>BOND
   1    1    2 1
   2    1    6 2
   3    1    7 1
   4    2    3 2
   5    2   29 1
   6    3    4 1
   7    3   18 1
   8    4    5 1
   9    4   30 1
  10    4   31 1
  11    5    8 1
  12    5   32 1
  13    5   33 1
  14    7   27 1
  15    8    9 ar
  16    8   13 ar
  17    9   10 ar
  18    9   34 1
  19   10   11 ar
  20   10   35 1
  21   11   12 ar
  22   11   14 1
  23   12   13 ar
  24   12   36 1
  25   13   37 1
  26   15   16 ar
  27   15   20 ar
  28   15   21 1
  29   16   17 ar
  30   16   38 1
  31   17   18 ar
  32   17   39 1
  33   18   19 ar
  34   19   20 ar
  35   19   40 1
  36   20   41 1
  37   21   22 ar
  38   21   26 ar
  39   22   23 ar
  40   22   42 1
  41   23   24 ar
  42   23   43 1
  43   24   25 ar
  44   24   44 1
  45   25   26 ar
  46   25   45 1
  47   26   46 1
  48   27   28 1
  49   27   47 1
  50   27   48 1
  51   28   49 1
  52   28   50 1
  53   28   51 1

#	End of record

