#	Name: ASD01912309
#	Creating user name:	WinNT
#	Creation time:	15. 06. 2019 19:59

#	Modifying user name:	WinNT
#	Modification time:	15. 06. 2019 19:59

#	Program:	/corina/corina34_cracker 3.40 0067  02.08.2006

@<TRIPOS>MOLECULE
ASD01912309
  56   58    0    0    0
SMALL
NO_CHARGES


@<TRIPOS>ATOM
   1 C1            -0.1308     1.6274    -1.2096 C.ar    
   2 C2            -0.1126     0.2419    -1.3951 C.ar    
   3 C3             1.0988    -0.3913    -1.6042 C.ar    
   4 C4             2.2552     0.3775    -1.6219 C.ar    
   5 C5             2.1659     1.7443    -1.4315 C.ar    
   6 N6             1.0007     2.3258    -1.2339 N.ar    
   7 C7             3.4195     2.5804    -1.4502 C.3     
   8 C8            -1.3771     2.3000    -0.9977 C.1     
   9 C9            -2.3989     2.8514    -0.8240 C.1     
  10 C10           -3.6452     3.5240    -0.6121 C.2     
  11 N11           -3.6028     7.1937     0.9962 N.am    
  12 C12           -4.8460     6.4150     1.0666 C.3     
  13 C13           -4.9743     5.5734    -0.2095 C.3     
  14 C14           -3.6680     4.8443    -0.4348 C.2     
  15 C15           -2.3881     5.6509    -0.4543 C.3     
  16 C16           -2.3246     6.4905     0.8279 C.3     
  17 C17           -3.6352     8.5385     1.0796 C.2     
  18 C18           -2.3750     9.3048     1.1388 C.ar    
  19 C19           -2.2267    10.4674     0.3785 C.ar    
  20 C20           -1.0458    11.1836     0.4360 C.ar    
  21 C21           -0.0044    10.7468     1.2503 C.ar    
  22 C22           -0.1494     9.5882     2.0087 C.ar    
  23 C23           -1.3307     8.8719     1.9595 C.ar    
  24 O24           -4.7024     9.1204     1.1062 O.2     
  25 O25            0.8700     9.1637     2.8025 O.3     
  26 C26            0.6528     7.9673     3.5532 C.3     
  27 O27            1.1558    11.4523     1.3048 O.3     
  28 C28            1.2450    12.4789     2.2949 C.3     
  29 O29           -0.9009    12.3155    -0.3039 O.3     
  30 C30           -2.0092    12.7051    -1.1175 C.3     
  31 H31           -1.0312    -0.3257    -1.3750 H       
  32 H32            1.1446    -1.4604    -1.7503 H       
  33 H33            3.2162    -0.0883    -1.7826 H       
  34 H34            3.6170     2.9163    -2.4682 H       
  35 H35            3.2887     3.4460    -0.8009 H       
  36 H36            4.2596     1.9835    -1.0951 H       
  37 H37           -4.5668     2.9611    -0.5961 H       
  38 H38           -4.8172     5.7583     1.9360 H       
  39 H39           -5.6970     7.0916     1.1452 H       
  40 H40           -5.7824     4.8512    -0.0930 H       
  41 H41           -5.1826     6.2241    -1.0588 H       
  42 H42           -1.5312     4.9785    -0.4954 H       
  43 H43           -2.3816     6.3079    -1.3239 H       
  44 H44           -1.5156     7.2168     0.7494 H       
  45 H45           -2.1510     5.8381     1.6837 H       
  46 H46           -3.0340    10.8063    -0.2539 H       
  47 H47           -1.4444     7.9759     2.5516 H       
  48 H48            1.5417     7.7415     4.1422 H       
  49 H49           -0.1988     8.1058     4.2192 H       
  50 H50            0.4499     7.1420     2.8707 H       
  51 H51            2.2196    12.9625     2.2300 H       
  52 H52            0.4611    13.2169     2.1247 H       
  53 H53            1.1222    12.0402     3.2851 H       
  54 H54           -1.7619    13.6213    -1.6537 H       
  55 H55           -2.2304    11.9135    -1.8334 H       
  56 H56           -2.8806    12.8776    -0.4859 H       
@<TRIPOS>BOND
   1    1    2 ar
   2    1    6 ar
   3    1    8 1
   4    2    3 ar
   5    2   31 1
   6    3    4 ar
   7    3   32 1
   8    4    5 ar
   9    4   33 1
  10    5    6 ar
  11    5    7 1
  12    7   34 1
  13    7   35 1
  14    7   36 1
  15    8    9 3
  16    9   10 1
  17   10   14 2
  18   10   37 1
  19   11   12 1
  20   11   16 1
  21   11   17 am
  22   12   13 1
  23   12   38 1
  24   12   39 1
  25   13   14 1
  26   13   40 1
  27   13   41 1
  28   14   15 1
  29   15   16 1
  30   15   42 1
  31   15   43 1
  32   16   44 1
  33   16   45 1
  34   17   18 1
  35   17   24 2
  36   18   19 ar
  37   18   23 ar
  38   19   20 ar
  39   19   46 1
  40   20   21 ar
  41   20   29 1
  42   21   22 ar
  43   21   27 1
  44   22   23 ar
  45   22   25 1
  46   23   47 1
  47   25   26 1
  48   26   48 1
  49   26   49 1
  50   26   50 1
  51   27   28 1
  52   28   51 1
  53   28   52 1
  54   28   53 1
  55   29   30 1
  56   30   54 1
  57   30   55 1
  58   30   56 1

#	End of record

