#	Name: ASD03331722
#	Creating user name:	WinNT
#	Creation time:	15. 06. 2019 20:39

#	Modifying user name:	WinNT
#	Modification time:	15. 06. 2019 20:39

#	Program:	/corina/corina34_cracker 3.40 0067  02.08.2006

@<TRIPOS>MOLECULE
ASD03331722
  67   69    0    0    0
SMALL
NO_CHARGES


@<TRIPOS>ATOM
   1 C1             0.1415     1.6108     0.6692 C.3     
   2 N2             0.1426     0.1729     0.3602 N.am    
   3 C3             0.7022    -0.2567    -0.9356 C.3     
   4 C4             1.9693     0.5339    -1.1512 C.2     
   5 N5             2.3439     1.5927    -0.3899 N.pl3   
   6 C6             1.5876     2.1121     0.7519 C.3     
   7 C7             2.9274     0.3521    -2.0952 C.2     
   8 N8             3.8721     1.3012    -1.9076 N.2     
   9 C9             3.5272     2.0512    -0.8862 C.2     
  10 C10            4.2950     3.2023    -0.3622 C.ar    
  11 C11            2.9369    -0.6913    -3.1358 C.2     
  12 O12            2.0245    -1.4928    -3.2016 O.2     
  13 C13            5.3153     3.7697    -1.1259 C.ar    
  14 N14            3.9567    -0.7575    -4.0145 N.am    
  15 C15           -0.3523    -0.7254     1.2347 C.2     
  16 C16            6.0273     4.8433    -0.6318 C.ar    
  17 C17            5.7316     5.3568     0.6183 C.ar    
  18 C18            4.7213     4.7983     1.3807 C.ar    
  19 C19            3.9978     3.7284     0.8953 C.ar    
  20 N20           -0.4407    -2.0249     0.8883 N.am    
  21 S21           -0.8685    -0.2157     2.7854 S.2     
  22 C22           -0.8717    -3.0182     1.8751 C.3     
  23 C23            3.9661    -1.7948    -5.0490 C.3     
  24 C24            5.3857    -2.0646    -5.4769 C.2     
  25 N25            5.7152    -3.2611    -6.0025 N.am    
  26 C26            7.1138    -3.5628    -6.3172 C.3     
  27 C27            3.8339    -0.1049    -6.8845 C.3     
  28 C28            3.1515    -1.3206    -6.2541 C.3     
  29 C29            3.0632    -2.4475    -7.2853 C.3     
  30 C30            1.7429    -0.9353    -5.7979 C.3     
  31 O31            6.2316    -1.2051    -5.3483 O.2     
  32 C32           -0.8860    -4.4054     1.2297 C.3     
  33 C33           -1.3362    -5.4428     2.2602 C.3     
  34 H34           -0.3867     2.1514    -0.1163 H       
  35 H35           -0.3566     1.7774     1.6244 H       
  36 H36            0.9288    -1.3226    -0.9080 H       
  37 H37           -0.0080    -0.0469    -1.7355 H       
  38 H38            1.5970     3.2018     0.7295 H       
  39 H39            2.0417     1.7623     1.6790 H       
  40 H40            5.5475     3.3693    -2.1017 H       
  41 H41            4.6844    -0.1183    -3.9620 H       
  42 H42            6.8174     5.2835    -1.2221 H       
  43 H43            6.2921     6.1970     1.0008 H       
  44 H44            4.4957     5.2032     2.3562 H       
  45 H45            3.2093     3.2932     1.4914 H       
  46 H46           -0.2190    -2.3025    -0.0143 H       
  47 H47           -0.1805    -3.0168     2.7179 H       
  48 H48           -1.8734    -2.7706     2.2263 H       
  49 H49            3.5267    -2.7093    -4.6505 H       
  50 H50            5.0263    -3.9225    -6.1724 H       
  51 H51            7.4854    -2.8433    -7.0468 H       
  52 H52            7.7123    -3.5006    -5.4083 H       
  53 H53            7.1844    -4.5689    -6.7305 H       
  54 H54            4.8374    -0.3795    -7.2095 H       
  55 H55            3.2536     0.2329    -7.7431 H       
  56 H56            3.8968     0.6979    -6.1499 H       
  57 H57            4.0579    -2.6606    -7.6767 H       
  58 H58            2.6597    -3.3425    -6.8117 H       
  59 H59            2.4090    -2.1423    -8.1020 H       
  60 H60            1.1626    -0.5975    -6.6565 H       
  61 H61            1.2568    -1.8014    -5.3488 H       
  62 H62            1.8058    -0.1324    -5.0633 H       
  63 H63           -1.5773    -4.4068     0.3869 H       
  64 H64            0.1157    -4.6530     0.8784 H       
  65 H65           -0.6449    -5.4413     3.1030 H       
  66 H66           -2.3379    -5.1951     2.6114 H       
  67 H67           -1.3464    -6.4310     1.8004 H       
@<TRIPOS>BOND
   1    1    2 1
   2    1    6 1
   3    1   34 1
   4    1   35 1
   5    2    3 1
   6    2   15 am
   7    3    4 1
   8    3   36 1
   9    3   37 1
  10    4    5 1
  11    4    7 2
  12    5    6 1
  13    5    9 1
  14    6   38 1
  15    6   39 1
  16    7    8 1
  17    7   11 1
  18    8    9 2
  19    9   10 1
  20   10   13 ar
  21   10   19 ar
  22   11   12 2
  23   11   14 am
  24   13   16 ar
  25   13   40 1
  26   14   23 1
  27   14   41 1
  28   15   20 am
  29   15   21 2
  30   16   17 ar
  31   16   42 1
  32   17   18 ar
  33   17   43 1
  34   18   19 ar
  35   18   44 1
  36   19   45 1
  37   20   22 1
  38   20   46 1
  39   22   32 1
  40   22   47 1
  41   22   48 1
  42   23   24 1
  43   23   28 1
  44   23   49 1
  45   24   25 am
  46   24   31 2
  47   25   26 1
  48   25   50 1
  49   26   51 1
  50   26   52 1
  51   26   53 1
  52   27   28 1
  53   27   54 1
  54   27   55 1
  55   27   56 1
  56   28   29 1
  57   28   30 1
  58   29   57 1
  59   29   58 1
  60   29   59 1
  61   30   60 1
  62   30   61 1
  63   30   62 1
  64   32   33 1
  65   32   63 1
  66   32   64 1
  67   33   65 1
  68   33   66 1
  69   33   67 1

#	End of record

