#	Name: ASD01150254
#	Creating user name:	WinNT
#	Creation time:	15. 06. 2019 19:03

#	Modifying user name:	WinNT
#	Modification time:	15. 06. 2019 19:03

#	Program:	/corina/corina34_cracker 3.40 0067  02.08.2006

@<TRIPOS>MOLECULE
ASD01150254
  62   66    0    0    0
SMALL
NO_CHARGES


@<TRIPOS>ATOM
   1 C1             0.0419     1.0304     0.3348 C.ar    
   2 C2            -0.0785    -0.3598     0.2352 C.ar    
   3 C3            -1.2975    -0.9492     0.1037 C.ar    
   4 C4            -2.4601    -0.1609     0.0657 C.ar    
   5 C5            -2.3437     1.2473     0.1663 C.ar    
   6 C6            -1.0797     1.8334     0.3067 C.ar    
   7 N7            -3.6662    -0.7293    -0.0644 N.ar    
   8 C8            -4.7666    -0.0235    -0.1034 C.ar    
   9 C9            -4.7483     1.3774    -0.0107 C.ar    
  10 C10           -3.5184     2.0397     0.1277 C.ar    
  11 C11           -3.4505     3.5123     0.2287 C.ar    
  12 C12           -6.0067     2.1442    -0.0579 C.2     
  13 C13           -6.0883    -0.7320    -0.2520 C.3     
  14 C14           -3.0508     4.1153     1.4234 C.ar    
  15 C15           -2.9888     5.4896     1.5118 C.ar    
  16 C16           -3.3228     6.2730     0.4178 C.ar    
  17 C17           -3.7202     5.6798    -0.7706 C.ar    
  18 C18           -3.7803     4.3063    -0.8720 C.ar    
  19 F19           -3.2612     7.6194     0.5103 F       
  20 O20           -6.4412     2.5346    -1.1244 O.2     
  21 N21           -6.6755     2.4124     1.0811 N.am    
  22 N22            1.3056     1.6090     0.4694 N.3     
  23 C23            2.3557     0.5825     0.4833 C.3     
  24 C24            3.7297     1.2564     0.4851 C.3     
  25 C25            3.8510     2.1539     1.7197 C.3     
  26 C26            2.7174     3.1831     1.7062 C.3     
  27 C27            1.3727     2.4534     1.6690 C.3     
  28 C28           -7.8650     3.2747     1.0655 C.3     
  29 C29           -9.0239     2.5283     1.7338 C.3     
  30 C30           -8.5949     2.0745     3.1310 C.3     
  31 C31           -7.4064     1.1173     3.0157 C.3     
  32 C32           -6.2324     1.8432     2.3611 C.3     
  33 H33            0.8094    -0.9740     0.2626 H       
  34 H34           -1.3718    -2.0240     0.0281 H       
  35 H35           -0.9829     2.9062     0.3844 H       
  36 H36           -6.4861    -0.9698     0.7346 H       
  37 H37           -6.7895    -0.0861    -0.7805 H       
  38 H38           -5.9454    -1.6527    -0.8177 H       
  39 H39           -2.7911     3.5060     2.2765 H       
  40 H40           -2.6799     5.9569     2.4352 H       
  41 H41           -3.9793     6.2948    -1.6197 H       
  42 H42           -4.0900     3.8452    -1.7983 H       
  43 H43            2.2513    -0.0318     1.3776 H       
  44 H44            2.2606    -0.0462    -0.4021 H       
  45 H45            4.5087     0.4944     0.5111 H       
  46 H46            3.8402     1.8600    -0.4158 H       
  47 H47            3.7794     1.5451     2.6210 H       
  48 H48            4.8112     2.6693     1.7025 H       
  49 H49            2.7732     3.7978     2.6046 H       
  50 H50            2.8120     3.8170     0.8245 H       
  51 H51            0.5638     3.1836     1.6448 H       
  52 H52            1.2729     1.8303     2.5578 H       
  53 H53           -7.6575     4.1935     1.6139 H       
  54 H54           -8.1297     3.5134     0.0354 H       
  55 H55           -9.8850     3.1915     1.8151 H       
  56 H56           -9.2899     1.6578     1.1342 H       
  57 H57           -8.3054     2.9433     3.7221 H       
  58 H58           -9.4259     1.5645     3.6182 H       
  59 H59           -7.1163     0.7762     4.0095 H       
  60 H60           -7.6876     0.2600     2.4041 H       
  61 H61           -5.4186     1.1392     2.1871 H       
  62 H62           -5.8901     2.6467     3.0133 H       
@<TRIPOS>BOND
   1    1    2 ar
   2    1   22 1
   3    1    6 ar
   4    2    3 ar
   5    2   33 1
   6    3    4 ar
   7    3   34 1
   8    4    5 ar
   9    4    7 ar
  10    5    6 ar
  11    5   10 ar
  12    6   35 1
  13    7    8 ar
  14    8    9 ar
  15    8   13 1
  16    9   10 ar
  17    9   12 1
  18   10   11 1
  19   11   14 ar
  20   11   18 ar
  21   12   20 2
  22   12   21 am
  23   13   36 1
  24   13   37 1
  25   13   38 1
  26   14   15 ar
  27   14   39 1
  28   15   16 ar
  29   15   40 1
  30   16   17 ar
  31   16   19 1
  32   17   18 ar
  33   17   41 1
  34   18   42 1
  35   21   28 1
  36   21   32 1
  37   22   23 1
  38   22   27 1
  39   23   24 1
  40   23   43 1
  41   23   44 1
  42   24   25 1
  43   24   45 1
  44   24   46 1
  45   25   26 1
  46   25   47 1
  47   25   48 1
  48   26   27 1
  49   26   49 1
  50   26   50 1
  51   27   51 1
  52   27   52 1
  53   28   29 1
  54   28   53 1
  55   28   54 1
  56   29   30 1
  57   29   55 1
  58   29   56 1
  59   30   31 1
  60   30   57 1
  61   30   58 1
  62   31   32 1
  63   31   59 1
  64   31   60 1
  65   32   61 1
  66   32   62 1

#	End of record

