#	Name: ASD01230815
#	Creating user name:	WinNT
#	Creation time:	15. 06. 2019 19:15

#	Modifying user name:	WinNT
#	Modification time:	15. 06. 2019 19:15

#	Program:	/corina/corina34_cracker 3.40 0067  02.08.2006

@<TRIPOS>MOLECULE
ASD01230815
  33   35    0    0    0
SMALL
NO_CHARGES


@<TRIPOS>ATOM
   1 C1            -0.0166     1.3739     0.0096 C.2     
   2 C2             0.0021    -0.0041     0.0020 C.2     
   3 C3            -1.2143    -0.6999     0.0078 C.2     
   4 C4            -2.3848    -0.0389     0.0095 C.2     
   5 N5            -2.4623     1.3310    -0.0002 N.pl3   
   6 C6            -1.3175     2.0759     0.0320 C.2     
   7 C7            -3.8099     1.9041    -0.0512 C.3     
   8 C8            -3.8788     3.1900     0.7778 C.3     
   9 S9            -2.6224     4.3260     0.1103 S.o2    
  10 N10           -1.2622     3.3847     0.0815 N.am    
  11 C11            1.2496     2.1412     0.0016 C.ar    
  12 O12           -2.8865     4.6250    -1.2536 O.2     
  13 O13           -2.3223     5.3522     1.0462 O.2     
  14 C14            2.1022     2.0738    -1.1005 C.ar    
  15 C15            3.2824     2.7924    -1.1015 C.ar    
  16 C16            3.6184     3.5781    -0.0104 C.ar    
  17 C17            2.7759     3.6476     1.0841 C.ar    
  18 C18            1.5919     2.9388     1.0938 C.ar    
  19 C19            4.9071     4.3594    -0.0164 C.3     
  20 F20            4.1101     2.7286    -2.1674 F       
  21 H21            0.9399    -0.5395    -0.0086 H       
  22 H22           -1.2112    -1.7799     0.0105 H       
  23 H23           -3.3018    -0.6095     0.0185 H       
  24 H24           -4.0658     2.1296    -1.0865 H       
  25 H25           -4.5232     1.1817     0.3457 H       
  26 H26           -4.8689     3.6370     0.6883 H       
  27 H27           -3.6627     2.9699     1.8232 H       
  28 H28            1.8405     1.4613    -1.9506 H       
  29 H29            3.0433     4.2613     1.9316 H       
  30 H30            0.9351     2.9947     1.9494 H       
  31 H31            4.7314     5.3468    -0.4434 H       
  32 H32            5.2727     4.4651     1.0050 H       
  33 H33            5.6493     3.8314    -0.6151 H       
@<TRIPOS>BOND
   1    1    2 2
   2    1   11 1
   3    1    6 1
   4    2    3 1
   5    2   21 1
   6    3    4 2
   7    3   22 1
   8    4    5 1
   9    4   23 1
  10    5    6 1
  11    5    7 1
  12    6   10 2
  13    7    8 1
  14    7   24 1
  15    7   25 1
  16    8    9 1
  17    8   26 1
  18    8   27 1
  19    9   10 am
  20    9   12 2
  21    9   13 2
  22   11   14 ar
  23   11   18 ar
  24   14   15 ar
  25   14   28 1
  26   15   16 ar
  27   15   20 1
  28   16   17 ar
  29   16   19 1
  30   17   18 ar
  31   17   29 1
  32   18   30 1
  33   19   31 1
  34   19   32 1
  35   19   33 1

#	End of record

