#	Name: ASD03091995
#	Creating user name:	WinNT
#	Creation time:	15. 06. 2019 20:31

#	Modifying user name:	WinNT
#	Modification time:	15. 06. 2019 20:31

#	Program:	/corina/corina34_cracker 3.40 0067  02.08.2006

@<TRIPOS>MOLECULE
ASD03091995
  46   47    0    0    0
SMALL
NO_CHARGES


@<TRIPOS>ATOM
   1 C1            -0.0167     1.3809     0.0096 C.ar    
   2 C2             0.0021    -0.0041     0.0020 C.ar    
   3 C3             1.2173    -0.6631    -0.0131 C.ar    
   4 N4             2.3527     0.0081    -0.0204 N.ar    
   5 C5             2.3808     1.3255    -0.0136 C.ar    
   6 C6             1.2004     2.0593     0.0017 C.ar    
   7 N7             1.2338     3.4548     0.0084 N.pl3   
   8 N8             0.1214     4.2937     0.0291 N.2     
   9 C9             2.4503     4.2842     0.0012 C.3     
  10 C10            1.8970     5.7236     0.0146 C.3     
  11 C11            0.3971     5.5334     0.0322 C.2     
  12 Cl12          -0.7721     6.8164     0.0563 Cl      
  13 N13            2.3366     6.4326     1.2188 N.am    
  14 C14            2.0043     5.9616     2.4372 C.2     
  15 C15            2.4565     6.6909     3.6760 C.3     
  16 C16            1.9490     5.9527     4.9163 C.3     
  17 S17            2.4933     6.8306     6.4074 S.3     
  18 C18            1.8064     5.8210     7.7489 C.3     
  19 C19            2.1836     6.4390     9.0968 C.3     
  20 C20            1.6042     5.5875    10.2282 C.3     
  21 O21            1.3414     4.9509     2.5365 O.2     
  22 C22            3.1374     7.6535     1.0989 C.3     
  23 C23            2.2091     8.8679     1.0330 C.3     
  24 F24            2.1227     4.2906    10.1484 F       
  25 F25            1.9491     6.1525    11.4607 F       
  26 F26            0.2109     5.5408    10.1102 F       
  27 H27           -0.9516     1.9217     0.0170 H       
  28 H28           -0.9221    -0.5628     0.0082 H       
  29 H29            1.2372    -1.7429    -0.0188 H       
  30 H30            3.3303     1.8401    -0.0195 H       
  31 H31            3.0504     4.0945     0.8911 H       
  32 H32            3.0330     4.1045    -0.9023 H       
  33 H33            2.2067     6.2611    -0.8817 H       
  34 H34            3.5456     6.7306     3.6971 H       
  35 H35            2.0561     7.7047     3.6673 H       
  36 H36            0.8599     5.9130     4.8952 H       
  37 H37            2.3494     4.9389     4.9249 H       
  38 H38            0.7209     5.7846     7.6570 H       
  39 H39            2.2104     4.8106     7.6867 H       
  40 H40            3.2691     6.4754     9.1887 H       
  41 H41            1.7796     7.4494     9.1590 H       
  42 H42            3.7935     7.7442     1.9646 H       
  43 H43            3.7385     7.6060     0.1908 H       
  44 H44            1.5530     8.7771     0.1673 H       
  45 H45            1.6080     8.9154     1.9411 H       
  46 H46            2.8049     9.7762     0.9437 H       
@<TRIPOS>BOND
   1    1    2 ar
   2    1    6 ar
   3    1   27 1
   4    2    3 ar
   5    2   28 1
   6    3    4 ar
   7    3   29 1
   8    4    5 ar
   9    5    6 ar
  10    5   30 1
  11    6    7 1
  12    7    9 1
  13    7    8 1
  14    8   11 2
  15    9   10 1
  16    9   31 1
  17    9   32 1
  18   10   11 1
  19   10   13 1
  20   10   33 1
  21   11   12 1
  22   13   14 am
  23   13   22 1
  24   14   15 1
  25   14   21 2
  26   15   16 1
  27   15   34 1
  28   15   35 1
  29   16   17 1
  30   16   36 1
  31   16   37 1
  32   17   18 1
  33   18   19 1
  34   18   38 1
  35   18   39 1
  36   19   20 1
  37   19   40 1
  38   19   41 1
  39   20   24 1
  40   20   25 1
  41   20   26 1
  42   22   23 1
  43   22   42 1
  44   22   43 1
  45   23   44 1
  46   23   45 1
  47   23   46 1

#	End of record

