#	Name: ASD01813417
#	Creating user name:	WinNT
#	Creation time:	15. 06. 2019 19:30

#	Modifying user name:	WinNT
#	Modification time:	15. 06. 2019 19:30

#	Program:	/corina/corina34_cracker 3.40 0067  02.08.2006

@<TRIPOS>MOLECULE
ASD01813417
  54   57    0    0    0
SMALL
NO_CHARGES


@<TRIPOS>ATOM
   1 C1            -0.0173     1.4248     0.0099 C.3     
   2 O2             0.0021    -0.0041     0.0020 O.3     
   3 C3             0.6050    -0.6063    -1.0543 C.ar    
   4 C4             1.1765     0.1576    -2.0685 C.ar    
   5 N5             1.7626    -0.4166    -3.0945 N.ar    
   6 C6             1.8344    -1.7378    -3.2074 C.ar    
   7 C7             1.2842    -2.5666    -2.2300 C.ar    
   8 C8             0.6642    -1.9951    -1.1335 C.ar    
   9 C9             0.0622    -2.8555    -0.0526 C.3     
  10 C10           -1.4062    -3.0534    -0.3277 C.ar    
  11 C11           -2.3303    -2.1599     0.1820 C.ar    
  12 C12           -3.6768    -2.3390    -0.0680 C.ar    
  13 C13           -4.1021    -3.4172    -0.8323 C.ar    
  14 C14           -3.1719    -4.3123    -1.3431 C.ar    
  15 C15           -1.8263    -4.1251    -1.0940 C.ar    
  16 N16           -5.4681    -3.6019    -1.0874 N.pl3   
  17 C17           -6.0143    -4.6074    -1.8080 C.2     
  18 C18           -7.3553    -4.4262    -1.8169 C.2     
  19 C19           -7.6391    -3.2725    -1.0778 C.2     
  20 N20           -6.5095    -2.7808    -0.6360 N.2     
  21 C21            2.5047    -2.3367    -4.3823 C.2     
  22 O22            2.5740    -3.5452    -4.4920 O.2     
  23 N23            3.0384    -1.5422    -5.3312 N.am    
  24 C24            3.7022    -2.1353    -6.4948 C.3     
  25 H25            4.2151    -3.0493    -6.1954 H       
  26 C26            2.6596    -2.4611    -7.5687 C.3     
  27 C27            3.3703    -3.0068    -8.8100 C.3     
  28 O28            4.3208    -2.0460    -9.2740 O.3     
  29 C29            5.3475    -1.7375    -8.3290 C.3     
  30 C30            4.7178    -1.1417    -7.0670 C.3     
  31 H31            4.2129    -0.2091    -7.3189 H       
  32 O32            5.7362    -0.8879    -6.0972 O.3     
  33 H33            1.0053     1.8021     0.0021 H       
  34 H34           -0.5445     1.7859    -0.8732 H       
  35 H35           -0.5275     1.7763     0.9067 H       
  36 H36            1.1372     1.2354    -2.0111 H       
  37 H37            1.3449    -3.6407    -2.3259 H       
  38 H38            0.5628    -3.8236    -0.0378 H       
  39 H39            0.1882    -2.3665     0.9134 H       
  40 H40           -1.9988    -1.3214     0.7765 H       
  41 H41           -4.3981    -1.6412     0.3310 H       
  42 H42           -3.4998    -5.1522    -1.9377 H       
  43 H43           -1.1018    -4.8186    -1.4947 H       
  44 H44           -5.4768    -5.4105    -2.2902 H       
  45 H45           -8.0788    -5.0603    -2.3077 H       
  46 H46           -8.6215    -2.8609    -0.8993 H       
  47 H47            2.9831    -0.5778    -5.2437 H       
  48 H48            1.9657    -3.2103    -7.1873 H       
  49 H49            2.1118    -1.5560    -7.8310 H       
  50 H50            3.8846    -3.9338    -8.5563 H       
  51 H51            2.6371    -3.2003    -9.5930 H       
  52 H52            5.8877    -2.6479    -8.0691 H       
  53 H53            6.0387    -1.0166    -8.7656 H       
  54 H54            6.4148    -0.2657    -6.3930 H       
@<TRIPOS>BOND
   1    1    2 1
   2    1   33 1
   3    1   34 1
   4    1   35 1
   5    2    3 1
   6    3    8 ar
   7    3    4 ar
   8    4    5 ar
   9    4   36 1
  10    5    6 ar
  11    6    7 ar
  12    6   21 1
  13    7    8 ar
  14    7   37 1
  15    8    9 1
  16    9   10 1
  17    9   38 1
  18    9   39 1
  19   10   15 ar
  20   10   11 ar
  21   11   12 ar
  22   11   40 1
  23   12   13 ar
  24   12   41 1
  25   13   14 ar
  26   13   16 1
  27   14   15 ar
  28   14   42 1
  29   15   43 1
  30   16   20 1
  31   16   17 1
  32   17   18 2
  33   17   44 1
  34   18   19 1
  35   18   45 1
  36   19   20 2
  37   19   46 1
  38   21   22 2
  39   21   23 am
  40   23   24 1
  41   23   47 1
  42   24   25 1
  43   24   30 1
  44   24   26 1
  45   26   27 1
  46   26   48 1
  47   26   49 1
  48   27   28 1
  49   27   50 1
  50   27   51 1
  51   28   29 1
  52   29   30 1
  53   29   52 1
  54   29   53 1
  55   30   31 1
  56   30   32 1
  57   32   54 1

#	End of record

