#	Name: ASD03090079
#	Creating user name:	WinNT
#	Creation time:	15. 06. 2019 20:28

#	Modifying user name:	WinNT
#	Modification time:	15. 06. 2019 20:28

#	Program:	/corina/corina34_cracker 3.40 0067  02.08.2006

@<TRIPOS>MOLECULE
ASD03090079
  40   41    0    0    0
SMALL
NO_CHARGES


@<TRIPOS>ATOM
   1 C1            -0.0278     1.4684    -0.2769 C.2     
   2 C2            -0.0074     0.0179    -0.5424 C.ar    
   3 C3             1.2106    -0.6663    -0.6025 C.ar    
   4 C4             1.2264    -2.0147    -0.8491 C.ar    
   5 C5             0.0307    -2.7034    -1.0396 C.ar    
   6 C6            -1.1843    -2.0245    -0.9802 C.ar    
   7 C7            -1.2065    -0.6771    -0.7288 C.ar    
   8 O8             1.0154     2.0707    -0.1100 O.2     
   9 N9            -1.2022     2.1275    -0.2247 N.am    
  10 S10            0.0550    -4.4364    -1.3568 S.3     
  11 C11           -1.7043    -4.8450    -1.5259 C.3     
  12 F12           -2.2536    -4.1124    -2.5837 F       
  13 F13           -1.8426    -6.2129    -1.7847 F       
  14 F14           -2.3735    -4.5248    -0.3399 F       
  15 C15           -1.2224     3.5684     0.0391 C.3     
  16 C16           -2.6477     4.0580     0.0454 C.ar    
  17 C17           -3.3693     4.0658     1.2249 C.ar    
  18 C18           -4.6757     4.5139     1.2340 C.ar    
  19 C19           -5.2643     4.9573     0.0570 C.ar    
  20 C20           -4.5367     4.9487    -1.1259 C.ar    
  21 C21           -3.2292     4.5039    -1.1273 C.ar    
  22 N22           -6.5878     5.4115     0.0627 N.am    
  23 C23           -7.0634     6.0882     1.1268 C.2     
  24 O24           -6.3724     6.2304     2.1134 O.2     
  25 C25           -8.4538     6.6683     1.0908 C.3     
  26 H26            2.1381    -0.1328    -0.4553 H       
  27 H27            2.1669    -2.5436    -0.8960 H       
  28 H28           -2.1098    -2.5610    -1.1287 H       
  29 H29           -2.1489    -0.1520    -0.6788 H       
  30 H30           -2.0341     1.6478    -0.3618 H       
  31 H31           -0.7659     3.7667     1.0088 H       
  32 H32           -0.6632     4.0881    -0.7389 H       
  33 H33           -2.9110     3.7208     2.1400 H       
  34 H34           -5.2390     4.5190     2.1554 H       
  35 H35           -4.9917     5.2929    -2.0429 H       
  36 H36           -2.6615     4.5008    -2.0461 H       
  37 H37           -7.1630     5.2393    -0.6992 H       
  38 H38           -8.9177     6.4407     0.1310 H       
  39 H39           -9.0494     6.2346     1.8941 H       
  40 H40           -8.4001     7.7491     1.2211 H       
@<TRIPOS>BOND
   1    1    2 1
   2    1    8 2
   3    1    9 am
   4    2    3 ar
   5    2    7 ar
   6    3    4 ar
   7    3   26 1
   8    4    5 ar
   9    4   27 1
  10    5    6 ar
  11    5   10 1
  12    6    7 ar
  13    6   28 1
  14    7   29 1
  15    9   15 1
  16    9   30 1
  17   10   11 1
  18   11   12 1
  19   11   13 1
  20   11   14 1
  21   15   16 1
  22   15   31 1
  23   15   32 1
  24   16   17 ar
  25   16   21 ar
  26   17   18 ar
  27   17   33 1
  28   18   19 ar
  29   18   34 1
  30   19   20 ar
  31   19   22 1
  32   20   21 ar
  33   20   35 1
  34   21   36 1
  35   22   23 am
  36   22   37 1
  37   23   24 2
  38   23   25 1
  39   25   38 1
  40   25   39 1
  41   25   40 1

#	End of record

