#	Name: ASD05430218
#	Creating user name:	WinNT
#	Creation time:	15. 06. 2019 21:00

#	Modifying user name:	WinNT
#	Modification time:	15. 06. 2019 21:00

#	Program:	/corina/corina34_cracker 3.40 0067  02.08.2006

@<TRIPOS>MOLECULE
ASD05430218
  64   70    0    0    0
SMALL
NO_CHARGES


@<TRIPOS>ATOM
   1 C1             0.0528     1.1908     0.3807 C.ar    
   2 C2             0.0200    -0.0135    -0.3217 C.ar    
   3 C3             1.1730    -0.5026    -0.9222 C.ar    
   4 C4             2.3547     0.1996    -0.8265 C.ar    
   5 C5             2.3950     1.4081    -0.1237 C.ar    
   6 C6             1.2344     1.9007     0.4804 C.ar    
   7 C7             4.8630    -0.0038     0.2175 C.3     
   8 C8             4.8270     1.5012     0.0670 C.2     
   9 C9             3.6566     2.1597    -0.0203 C.2     
  10 C10            6.2052    -0.4226     0.8247 C.3     
  11 C11            6.8949     0.6217     1.7106 C.3     
  12 N12            7.0959     1.8394     0.9245 N.pl3   
  13 C13            6.1087     2.2256     0.0192 C.2     
  14 N14           -1.1789    -0.7322    -0.4214 N.pl3   
  15 C15           -2.0066    -1.0679     0.6020 C.2     
  16 C16           -1.7410    -1.2241    -1.5710 C.2     
  17 C17           -2.8816    -1.8442    -1.2132 C.2     
  18 N18           -3.0190    -1.7337     0.1165 N.2     
  19 C19           -3.8403    -2.5382    -2.1460 C.3     
  20 C20           -0.9725     2.9087     1.6660 C.3     
  21 O21           -1.0789     1.6694     0.9625 O.3     
  22 C22            6.3784    -1.8935     1.2072 C.3     
  23 C23            7.1043    -1.3311    -0.0167 C.3     
  24 C24            8.2867     2.6699     1.0653 C.3     
  25 C25            8.6828     3.2218    -0.3034 C.3     
  26 O26            7.5625     3.8484    -0.9211 O.3     
  27 N27            6.3303     3.1722    -0.8342 N.2     
  28 C28            8.0632     3.7782     2.0464 C.ar    
  29 C29            8.9763     3.6313     3.0946 C.ar    
  30 N30            9.7939     2.5294     2.9119 N.pl3   
  31 C31            9.4431     1.8483     1.6568 C.3     
  32 C32            7.1446     4.8118     2.0155 C.ar    
  33 C33            7.1618     5.7087     3.0763 C.ar    
  34 C34            8.0592     5.5737     4.1184 C.ar    
  35 C35            8.9845     4.5403     4.1571 C.ar    
  36 F36            8.0352     6.4724     5.1268 F       
  37 H37            1.1433    -1.4357    -1.4653 H       
  38 H38            3.2498    -0.1835    -1.2939 H       
  39 H39            1.2611     2.8337     1.0238 H       
  40 H40            4.0523    -0.3231     0.8724 H       
  41 H41            4.7454    -0.4699    -0.7607 H       
  42 H42            3.6429     3.2396    -0.0145 H       
  43 H43            6.2664     0.8425     2.5733 H       
  44 H44            7.8590     0.2387     2.0451 H       
  45 H45           -1.8527    -0.8250     1.6430 H       
  46 H46           -1.3453    -1.1315    -2.5716 H       
  47 H47           -3.5546    -3.5852    -2.2477 H       
  48 H48           -4.8506    -2.4749    -1.7417 H       
  49 H49           -3.8092    -2.0565    -3.1233 H       
  50 H50           -1.9446     3.1757     2.0807 H       
  51 H51           -0.2483     2.8066     2.4743 H       
  52 H52           -0.6435     3.6890     0.9798 H       
  53 H53            6.9783    -2.1168     2.0895 H       
  54 H54            5.5362    -2.5622     1.0295 H       
  55 H55            6.7395    -1.6296    -0.9995 H       
  56 H56            8.1816    -1.1842     0.0605 H       
  57 H57            9.4831     3.9516    -0.1811 H       
  58 H58            9.0338     2.4055    -0.9346 H       
  59 H59           10.4941     2.2481     3.5214 H       
  60 H60            9.1179     0.8276     1.8582 H       
  61 H61           10.2941     1.8478     0.9758 H       
  62 H62            6.4436     4.9174     1.2008 H       
  63 H63            6.4592     6.5289     3.0866 H       
  64 H64            9.6823     4.4416     4.9754 H       
@<TRIPOS>BOND
   1    1    2 ar
   2    1    6 ar
   3    1   21 1
   4    2    3 ar
   5    2   14 1
   6    3    4 ar
   7    3   37 1
   8    4    5 ar
   9    4   38 1
  10    5    6 ar
  11    5    9 1
  12    6   39 1
  13    7    8 1
  14    7   10 1
  15    7   40 1
  16    7   41 1
  17    8    9 2
  18    8   13 1
  19    9   42 1
  20   10   11 1
  21   10   22 1
  22   10   23 1
  23   11   12 1
  24   11   43 1
  25   11   44 1
  26   12   13 1
  27   12   24 1
  28   13   27 2
  29   14   15 1
  30   14   16 1
  31   15   18 2
  32   15   45 1
  33   16   17 2
  34   16   46 1
  35   17   18 1
  36   17   19 1
  37   19   47 1
  38   19   48 1
  39   19   49 1
  40   20   21 1
  41   20   50 1
  42   20   51 1
  43   20   52 1
  44   22   23 1
  45   22   53 1
  46   22   54 1
  47   23   55 1
  48   23   56 1
  49   24   25 1
  50   24   28 1
  51   24   31 1
  52   25   26 1
  53   25   57 1
  54   25   58 1
  55   26   27 1
  56   28   29 ar
  57   28   32 ar
  58   29   30 1
  59   29   35 ar
  60   30   31 1
  61   30   59 1
  62   31   60 1
  63   31   61 1
  64   32   33 ar
  65   32   62 1
  66   33   34 ar
  67   33   63 1
  68   34   35 ar
  69   34   36 1
  70   35   64 1

#	End of record

