#	Name: ASD01883289
#	Creating user name:	WinNT
#	Creation time:	15. 06. 2019 19:46

#	Modifying user name:	WinNT
#	Modification time:	15. 06. 2019 19:46

#	Program:	/corina/corina34_cracker 3.40 0067  02.08.2006

@<TRIPOS>MOLECULE
ASD01883289
  48   49    0    0    0
SMALL
NO_CHARGES


@<TRIPOS>ATOM
   1 N1            -0.7156     2.2553    -1.2443 N.am    
   2 C2            -0.5832     0.9298    -1.4365 C.2     
   3 C3            -1.6995     0.0742    -1.2562 C.2     
   4 C4            -2.9280     0.6396    -0.8773 C.2     
   5 C5            -3.0026     2.0331    -0.6916 C.2     
   6 C6            -1.9021     2.7995    -0.8733 C.2     
   7 O7             0.4950     0.4654    -1.7656 O.2     
   8 C8            -1.5767    -1.3383    -1.4569 C.1     
   9 N9            -1.4794    -2.4589    -1.6160 N.1     
  10 C10            0.4461     3.1276    -1.4336 C.3     
  11 C11            0.4992     3.5976    -2.8887 C.3     
  12 C12            1.7124     4.5085    -3.0864 C.3     
  13 C13            2.9954     3.7024    -2.8744 C.3     
  14 C14            1.6967     5.0779    -4.5065 C.3     
  15 C15           -4.1211    -0.2129    -0.6777 C.ar    
  16 C16           -4.6923    -0.3282     0.5912 C.ar    
  17 C17           -5.8029    -1.1211     0.7770 C.ar    
  18 C18           -6.3577    -1.8099    -0.3037 C.ar    
  19 C19           -5.7864    -1.6945    -1.5727 C.ar    
  20 C20           -4.6790    -0.8973    -1.7593 C.ar    
  21 C21           -7.5500    -2.6618    -0.1042 C.2     
  22 N22           -7.6214    -3.8704    -0.6963 N.am    
  23 C23           -8.7607    -4.7514    -0.4281 C.3     
  24 C24           -6.5596    -4.3032    -1.6082 C.3     
  25 O25           -8.4655    -2.2720     0.5938 O.2     
  26 H26           -3.9370     2.4899    -0.4007 H       
  27 H27           -1.9715     3.8674    -0.7279 H       
  28 H28            0.3623     3.9923    -0.7753 H       
  29 H29            1.3563     2.5770    -1.1962 H       
  30 H30            0.5830     2.7329    -3.5470 H       
  31 H31           -0.4111     4.1481    -3.1261 H       
  32 H32            1.6740     5.3262    -2.3667 H       
  33 H33            3.8598     4.3514    -3.0152 H       
  34 H34            3.0067     3.2968    -1.8627 H       
  35 H35            3.0339     2.8847    -3.5941 H       
  36 H36            0.7827     5.6522    -4.6575 H       
  37 H37            2.5610     5.7268    -4.6473 H       
  38 H38            1.7352     4.2602    -5.2262 H       
  39 H39           -4.2630     0.2042     1.4271 H       
  40 H40           -6.2445    -1.2106     1.7585 H       
  41 H41           -6.2153    -2.2274    -2.4084 H       
  42 H42           -4.2374    -0.8078    -2.7408 H       
  43 H43           -9.5517    -4.5529    -1.1514 H       
  44 H44           -8.4439    -5.7909    -0.5122 H       
  45 H45           -9.1343    -4.5658     0.5789 H       
  46 H46           -5.7555    -3.5672    -1.6050 H       
  47 H47           -6.1707    -5.2676    -1.2814 H       
  48 H48           -6.9625    -4.3967    -2.6167 H       
@<TRIPOS>BOND
   1    1    2 am
   2    1   10 1
   3    1    6 1
   4    2    3 1
   5    2    7 2
   6    3    4 2
   7    3    8 1
   8    4    5 1
   9    4   15 1
  10    5    6 2
  11    5   26 1
  12    6   27 1
  13    8    9 3
  14   10   11 1
  15   10   28 1
  16   10   29 1
  17   11   12 1
  18   11   30 1
  19   11   31 1
  20   12   13 1
  21   12   14 1
  22   12   32 1
  23   13   33 1
  24   13   34 1
  25   13   35 1
  26   14   36 1
  27   14   37 1
  28   14   38 1
  29   15   16 ar
  30   15   20 ar
  31   16   17 ar
  32   16   39 1
  33   17   18 ar
  34   17   40 1
  35   18   19 ar
  36   18   21 1
  37   19   20 ar
  38   19   41 1
  39   20   42 1
  40   21   22 am
  41   21   25 2
  42   22   23 1
  43   22   24 1
  44   23   43 1
  45   23   44 1
  46   23   45 1
  47   24   46 1
  48   24   47 1
  49   24   48 1

#	End of record

