#	Name: ASD08830014
#	Creating user name:	WinNT
#	Creation time:	15. 06. 2019 21:19

#	Modifying user name:	WinNT
#	Modification time:	15. 06. 2019 21:19

#	Program:	/corina/corina34_cracker 3.40 0067  02.08.2006

@<TRIPOS>MOLECULE
ASD08830014
  51   53    0    0    0
SMALL
NO_CHARGES


@<TRIPOS>ATOM
   1 C1            -0.0187     1.5252     0.0104 C.3     
   2 C2             0.0021    -0.0041     0.0020 C.3     
   3 C3             1.3863     2.0531    -0.0002 C.2     
   4 C4             2.3259     1.4139     0.6879 C.2     
   5 C5             1.9913     0.1794     1.4312 C.2     
   6 C6             0.8644    -0.5029     1.1261 C.2     
   7 C7             2.8807    -0.3039     2.4980 C.2     
   8 C8             4.1358     0.4587     2.8358 C.3     
   9 C9             4.8743    -0.2522     3.9717 C.3     
  10 N10            6.0978     0.4912     4.3010 N.3     
  11 C11            6.7086    -0.0205     5.5345 C.3     
  12 O12            2.6040    -1.3162     3.1059 O.2     
  13 C13            7.8932     0.8663     5.9246 C.3     
  14 C14            8.9190     0.8685     4.7879 C.3     
  15 C15            8.2451     1.3596     3.5037 C.3     
  16 C16            7.0502     0.4585     3.1837 C.3     
  17 O17           -0.7769     1.9805    -1.1423 O.3     
  18 N18           10.0313     1.7642     5.1320 N.3     
  19 C19           11.0917     1.7008     4.1174 C.3     
  20 C20            9.5594     3.1433     5.3148 C.3     
  21 N21           -1.3722    -0.5037     0.0988 N.3     
  22 C22           -2.1472    -0.0682    -1.0783 C.3     
  23 C23           -2.0108     1.4287    -1.2383 C.2     
  24 O24           -2.9809     2.1182    -1.4469 O.2     
  25 H25           -0.5209     1.8688     0.9148 H       
  26 H26            0.4355    -0.3450    -0.9382 H       
  27 H27            1.6309     2.9428    -0.5614 H       
  28 H28            3.3359     1.7959     0.7042 H       
  29 H29            0.5904    -1.3891     1.6791 H       
  30 H30            4.7796     0.5061     1.9575 H       
  31 H31            3.8738     1.4692     3.1492 H       
  32 H32            4.2305    -0.2996     4.8500 H       
  33 H33            5.1364    -1.2627     3.6583 H       
  34 H34            5.9698    -0.0129     6.3359 H       
  35 H35            7.0567    -1.0405     5.3714 H       
  36 H36            7.5437     1.8835     6.1014 H       
  37 H37            8.3560     0.4771     6.8316 H       
  38 H38            9.2976    -0.1425     4.6369 H       
  39 H39            7.9011     2.3846     3.6424 H       
  40 H40            8.9591     1.3230     2.6810 H       
  41 H41            7.3967    -0.5637     3.0316 H       
  42 H42            6.5595     0.8141     2.2777 H       
  43 H43           10.6877     2.0007     3.1505 H       
  44 H44           11.9027     2.3733     4.3968 H       
  45 H45           11.4715     0.6812     4.0520 H       
  46 H46            8.8252     3.1724     6.1199 H       
  47 H47           10.4029     3.7853     5.5688 H       
  48 H48            9.1000     3.4955     4.3912 H       
  49 H49           -1.3861    -1.5085     0.1894 H       
  50 H50           -1.7657    -0.5658    -1.9698 H       
  51 H51           -3.1972    -0.3251    -0.9382 H       
@<TRIPOS>BOND
   1    1    2 1
   2    1    3 1
   3    1   17 1
   4    1   25 1
   5    2   21 1
   6    2    6 1
   7    2   26 1
   8    3    4 2
   9    3   27 1
  10    4    5 1
  11    4   28 1
  12    5    6 2
  13    5    7 1
  14    6   29 1
  15    7    8 1
  16    7   12 2
  17    8    9 1
  18    8   30 1
  19    8   31 1
  20    9   10 1
  21    9   32 1
  22    9   33 1
  23   10   11 1
  24   10   16 1
  25   11   13 1
  26   11   34 1
  27   11   35 1
  28   13   14 1
  29   13   36 1
  30   13   37 1
  31   14   15 1
  32   14   18 1
  33   14   38 1
  34   15   16 1
  35   15   39 1
  36   15   40 1
  37   16   41 1
  38   16   42 1
  39   17   23 1
  40   18   19 1
  41   18   20 1
  42   19   43 1
  43   19   44 1
  44   19   45 1
  45   20   46 1
  46   20   47 1
  47   20   48 1
  48   21   22 1
  49   21   49 1
  50   22   23 1
  51   22   50 1
  52   22   51 1
  53   23   24 2

#	End of record

