#	Name: ASD00844623
#	Creating user name:	WinNT
#	Creation time:	15. 06. 2019 18:50

#	Modifying user name:	WinNT
#	Modification time:	15. 06. 2019 18:50

#	Program:	/corina/corina34_cracker 3.40 0067  02.08.2006

@<TRIPOS>MOLECULE
ASD00844623
  98  102    0    0    0
SMALL
NO_CHARGES


@<TRIPOS>ATOM
   1 C1             0.7909     1.2440    -0.4414 C.ar    
   2 C2             1.0246    -0.0991    -0.6975 C.ar    
   3 C3             0.9311    -1.0256     0.3312 C.ar    
   4 C4             0.6058    -0.6086     1.6071 C.ar    
   5 C5             0.3729     0.7309     1.8598 C.ar    
   6 C6             0.4658     1.6560     0.8367 C.ar    
   7 C7             1.1838    -2.4856     0.0563 C.3     
   8 C8             0.8862    -3.3161     1.2866 C.2     
   9 C9             0.3398    -2.9607    -1.1281 C.3     
  10 C10           -1.1126    -2.6579    -0.8634 C.2     
  11 N11           -2.0569    -3.0771    -1.7289 N.am    
  12 O12           -1.4317    -2.0370     0.1283 O.2     
  13 C13           -3.4630    -2.6918    -1.5470 C.3     
  14 C14           -4.3243    -3.9587    -1.5386 C.3     
  15 C15           -4.0528    -4.7638    -2.8115 C.3     
  16 C16           -2.5807    -5.1807    -2.8491 C.3     
  17 C17           -1.6989    -3.9230    -2.8756 C.3     
  18 N18           -4.9015    -5.9628    -2.8226 N.3     
  19 C19           -4.7551    -6.6999    -4.0854 C.3     
  20 C20           -5.5918    -7.9800    -4.0257 C.3     
  21 N21           -6.9987    -7.6318    -3.7825 N.3     
  22 C22           -7.1450    -6.8946    -2.5196 C.3     
  23 C23           -6.3083    -5.6145    -2.5793 C.3     
  24 C24           -7.8473    -8.8308    -3.7936 C.3     
  25 O25           -0.1848    -3.4149     1.8473 O.2     
  26 N26            2.0315    -3.9229     1.6410 N.am    
  27 C27            2.6525    -2.7288    -0.2050 C.ar    
  28 C28            3.0870    -3.5996     0.7867 C.ar    
  29 C29            3.5200    -2.2676    -1.1694 C.ar    
  30 C30            4.8444    -2.6721    -1.1579 C.ar    
  31 C31            5.2904    -3.5404    -0.1742 C.ar    
  32 C32            4.4200    -4.0035     0.7940 C.ar    
  33 Cl33           5.9421    -2.0938    -2.3722 Cl      
  34 F34            6.5822    -3.9359    -0.1617 F       
  35 C35            1.8286    -6.5686     2.3716 C.ar    
  36 C36            2.8528    -7.3665     1.8971 C.ar    
  37 C37            0.5340    -7.0521     2.4039 C.ar    
  38 C38            0.2636    -8.3337     1.9618 C.ar    
  39 C39            1.2878    -9.1315     1.4869 C.ar    
  40 C40            2.5824    -8.6479     1.4545 C.ar    
  41 H41            1.0765   -10.1327     1.1415 H       
  42 H42            3.8642    -6.9887     1.8718 H       
  43 C43           -9.2789    -8.4458    -3.4148 C.3     
  44 C44           -7.8387    -9.4488    -5.1932 C.3     
  45 S45            2.1743    -4.9376     2.9418 S.o2    
  46 O46            3.5462    -4.9245     3.3123 O.2     
  47 O47            1.1246    -4.5942     3.8359 O.2     
  48 O48            1.3440    -0.5069    -1.9539 O.3     
  49 C49            1.3569     0.4913    -2.9763 C.3     
  50 C50            1.8109    -0.1361    -4.2959 C.3     
  51 F51            3.0601    -0.7408    -4.1193 F       
  52 F52            0.8796    -1.0990    -4.6992 F       
  53 H53            0.8674     1.9676    -1.2395 H       
  54 H54            0.5329    -1.3294     2.4081 H       
  55 H55            0.1180     1.0548     2.8580 H       
  56 H56            0.2835     2.7016     1.0365 H       
  57 H57            0.6597    -2.4436    -2.0328 H       
  58 H58            0.4690    -4.0351    -1.2586 H       
  59 H59           -3.5781    -2.1654    -0.5995 H       
  60 H60           -3.7735    -2.0443    -2.3671 H       
  61 H61           -4.0748    -4.5624    -0.6661 H       
  62 H62           -5.3779    -3.6820    -1.5009 H       
  63 H63           -4.2791    -4.1509    -3.6840 H       
  64 H64           -2.3476    -5.7729    -1.9643 H       
  65 H65           -2.3934    -5.7738    -3.7442 H       
  66 H66           -1.8668    -3.3785    -3.8047 H       
  67 H67           -0.6500    -4.2106    -2.8026 H       
  68 H68           -5.1002    -6.0781    -4.9115 H       
  69 H69           -3.7069    -6.9573    -4.2369 H       
  70 H70           -5.5078    -8.5139    -4.9723 H       
  71 H71           -5.2291    -8.6141    -3.2167 H       
  72 H72           -8.1933    -6.6372    -2.3682 H       
  73 H73           -6.7999    -7.5164    -1.6935 H       
  74 H74           -6.3923    -5.0806    -1.6328 H       
  75 H75           -6.6710    -4.9804    -3.3883 H       
  76 H76           -7.4633    -9.5544    -3.0745 H       
  77 H77            3.1679    -1.5914    -1.9343 H       
  78 H78            4.7741    -4.6798     1.5580 H       
  79 H79           -0.2662    -6.4288     2.7749 H       
  80 H80           -0.7477    -8.7117     1.9877 H       
  81 H81            3.3826    -9.2713     1.0839 H       
  82 H82           -9.6629    -7.7222    -4.1339 H       
  83 H83           -9.9086    -9.3355    -3.4231 H       
  84 H84           -9.2850    -8.0056    -2.4177 H       
  85 H85           -6.8188    -9.7230    -5.4630 H       
  86 H86           -8.4684   -10.3384    -5.2014 H       
  87 H87           -8.2227    -8.7252    -5.9122 H       
  88 H88            0.3545     0.9024    -3.0954 H       
  89 H89            2.0458     1.2885    -2.6971 H       
  90 H90            1.8867     0.6382    -5.0593 H       
  91 C91           12.5840     9.6087     9.7411 C.3     
  92 C92           12.6047     8.0788     9.7327 C.3     
  93 H93           13.6066     9.9860     9.7333 H       
  94 H94           12.0568     9.9697     8.8580 H       
  95 H95           12.0738     9.9602    10.6379 H       
  96 H96           13.1319     7.7178    10.6157 H       
  97 H97           11.5822     7.7016     9.7404 H       
  98 H98           13.1149     7.7273     8.8359 H       
@<TRIPOS>BOND
   1    1    2 ar
   2    1    6 ar
   3    1   53 1
   4    2    3 ar
   5    2   48 1
   6    3    4 ar
   7    3    7 1
   8    4    5 ar
   9    4   54 1
  10    5    6 ar
  11    5   55 1
  12    6   56 1
  13    7    8 1
  14    7    9 1
  15    7   27 1
  16    8   25 2
  17    8   26 am
  18    9   10 1
  19    9   57 1
  20    9   58 1
  21   10   11 am
  22   10   12 2
  23   11   13 1
  24   11   17 1
  25   13   14 1
  26   13   59 1
  27   13   60 1
  28   14   15 1
  29   14   61 1
  30   14   62 1
  31   15   16 1
  32   15   18 1
  33   15   63 1
  34   16   17 1
  35   16   64 1
  36   16   65 1
  37   17   66 1
  38   17   67 1
  39   18   19 1
  40   18   23 1
  41   19   20 1
  42   19   68 1
  43   19   69 1
  44   20   21 1
  45   20   70 1
  46   20   71 1
  47   21   22 1
  48   21   24 1
  49   22   23 1
  50   22   72 1
  51   22   73 1
  52   23   74 1
  53   23   75 1
  54   24   43 1
  55   24   44 1
  56   24   76 1
  57   26   45 am
  58   26   28 1
  59   27   28 ar
  60   27   29 ar
  61   28   32 ar
  62   29   30 ar
  63   29   77 1
  64   30   31 ar
  65   30   33 1
  66   31   32 ar
  67   31   34 1
  68   32   78 1
  69   35   36 ar
  70   35   37 ar
  71   35   45 1
  72   36   42 1
  73   36   40 ar
  74   37   38 ar
  75   37   79 1
  76   38   39 ar
  77   38   80 1
  78   39   40 ar
  79   39   41 1
  80   40   81 1
  81   43   82 1
  82   43   83 1
  83   43   84 1
  84   44   85 1
  85   44   86 1
  86   44   87 1
  87   45   46 2
  88   45   47 2
  89   48   49 1
  90   49   50 1
  91   49   88 1
  92   49   89 1
  93   50   51 1
  94   50   52 1
  95   50   90 1
  96   91   92 1
  97   91   93 1
  98   91   94 1
  99   91   95 1
 100   92   96 1
 101   92   97 1
 102   92   98 1

#	End of record

