#	Name: ASD01915476
#	Creating user name:	WinNT
#	Creation time:	15. 06. 2019 20:05

#	Modifying user name:	WinNT
#	Modification time:	15. 06. 2019 20:05

#	Program:	/corina/corina34_cracker 3.40 0067  02.08.2006

@<TRIPOS>MOLECULE
ASD01915476
  33   35    0    0    0
SMALL
NO_CHARGES


@<TRIPOS>ATOM
   1 C1            -0.0167     1.3785     0.0096 C.ar    
   2 C2             0.0021    -0.0041     0.0020 C.ar    
   3 C3             1.2077    -0.6799    -0.0127 C.ar    
   4 C4             2.3962     0.0258    -0.0199 C.ar    
   5 C5             2.3786     1.4101    -0.0127 C.ar    
   6 C6             1.1701     2.0861     0.0021 C.ar    
   7 C7             3.7105    -0.7113    -0.0349 C.3     
   8 O8             3.4669    -2.1194    -0.0394 O.3     
   9 C9             4.5516    -2.9313    -0.0528 C.ar    
  10 C10            4.3720    -4.3109    -0.0577 C.ar    
  11 N11            5.7638    -2.3968    -0.0664 N.ar    
  12 C12            6.8473    -3.1431    -0.0797 C.ar    
  13 C13            6.7439    -4.5364    -0.0786 C.ar    
  14 C14            5.4812    -5.1350    -0.0707 C.ar    
  15 C15            8.2166    -2.5140    -0.0978 C.3     
  16 C16            9.1957    -3.3762     0.6951 C.3     
  17 N17            9.1448    -4.7680     0.2553 N.am    
  18 C18            7.9768    -5.3465    -0.0907 C.2     
  19 O19            7.9403    -6.5195    -0.4082 O.2     
  20 F20            3.5396     2.1009    -0.0192 F       
  21 H21           -0.9593     1.9055     0.0170 H       
  22 H22           -0.9260    -0.5563     0.0079 H       
  23 H23            1.2212    -1.7598    -0.0183 H       
  24 H24            1.1552     3.1660     0.0073 H       
  25 H25            4.2709    -0.4367    -0.9286 H       
  26 H26            4.2866    -0.4451     0.8513 H       
  27 H27            3.3777    -4.7327    -0.0511 H       
  28 H28            5.3753    -6.2098    -0.0705 H       
  29 H29            8.5619    -2.4283    -1.1281 H       
  30 H30            8.1647    -1.5211     0.3489 H       
  31 H31           10.2061    -2.9929     0.5530 H       
  32 H32            8.9405    -3.3260     1.7536 H       
  33 H33            9.9646    -5.2846     0.2111 H       
@<TRIPOS>BOND
   1    1    2 ar
   2    1    6 ar
   3    1   21 1
   4    2    3 ar
   5    2   22 1
   6    3    4 ar
   7    3   23 1
   8    4    5 ar
   9    4    7 1
  10    5    6 ar
  11    5   20 1
  12    6   24 1
  13    7    8 1
  14    7   25 1
  15    7   26 1
  16    8    9 1
  17    9   10 ar
  18    9   11 ar
  19   10   14 ar
  20   10   27 1
  21   11   12 ar
  22   12   13 ar
  23   12   15 1
  24   13   14 ar
  25   13   18 1
  26   14   28 1
  27   15   16 1
  28   15   29 1
  29   15   30 1
  30   16   17 1
  31   16   31 1
  32   16   32 1
  33   17   18 am
  34   17   33 1
  35   18   19 2

#	End of record

