#	Name: ASD01915855
#	Creating user name:	WinNT
#	Creation time:	15. 06. 2019 20:06

#	Modifying user name:	WinNT
#	Modification time:	15. 06. 2019 20:06

#	Program:	/corina/corina34_cracker 3.40 0067  02.08.2006

@<TRIPOS>MOLECULE
ASD01915855
  45   48    0    0    0
SMALL
NO_CHARGES


@<TRIPOS>ATOM
   1 C1            -0.0043     1.4622     0.2153 C.2     
   2 N2             0.0609     0.1085    -0.0285 N.pl3   
   3 C3            -1.1522    -0.6757    -0.2895 C.3     
   4 C4            -2.3301    -0.0459     0.4520 C.3     
   5 N5            -2.4043     1.3988     0.2636 N.am    
   6 C6            -1.2914     2.1717     0.2653 C.2     
   7 C7             1.2787     1.8993     0.3895 C.2     
   8 C8             2.0743     0.7543     0.2494 C.2     
   9 N9             1.2805    -0.2632     0.0089 N.2     
  10 C10            3.5766     0.7005     0.3557 C.3     
  11 O11            4.0823     2.0097     0.6249 O.3     
  12 C12            5.4294     2.1369     0.7510 C.ar    
  13 O13           -1.3535     3.3858     0.3063 O.2     
  14 C14            5.9885     3.3793     1.0125 C.ar    
  15 C15            6.2473     1.0235     0.6240 C.ar    
  16 C16            7.6164     1.1555     0.7526 C.ar    
  17 C17            8.1717     2.3958     1.0076 C.ar    
  18 C18            7.3582     3.5059     1.1402 C.ar    
  19 C19           -3.6482     1.9976     0.0778 C.ar    
  20 C20           -4.8140     1.2700     0.3033 C.ar    
  21 N21           -5.9903     1.8411     0.1265 N.ar    
  22 C22           -6.0627     3.1025    -0.2643 C.ar    
  23 C23           -4.9077     3.8275    -0.4890 C.ar    
  24 N24           -3.7253     3.2638    -0.3092 N.ar    
  25 C25           -7.4081     3.7508    -0.4655 C.3     
  26 C26           -4.9961     5.2646    -0.9342 C.3     
  27 H27           -1.3578    -0.6825    -1.3599 H       
  28 H28           -1.0068    -1.6979     0.0600 H       
  29 H29           -3.2548    -0.4961     0.0911 H       
  30 H30           -2.2299    -0.2576     1.5166 H       
  31 H31            1.6080     2.9080     0.5908 H       
  32 H32            3.8597     0.0280     1.1655 H       
  33 H33            3.9944     0.3354    -0.5826 H       
  34 H34            5.3536     4.2468     1.1159 H       
  35 H35            5.8141     0.0544     0.4252 H       
  36 H36            8.2536     0.2890     0.6542 H       
  37 H37            9.2423     2.4969     1.1078 H       
  38 H38            7.7943     4.4737     1.3391 H       
  39 H39           -4.7554     0.2398     0.6220 H       
  40 H40           -7.7328     4.2112     0.4676 H       
  41 H41           -7.3314     4.5141    -1.2398 H       
  42 H42           -8.1333     2.9961    -0.7699 H       
  43 H43           -5.0174     5.9151    -0.0598 H       
  44 H44           -4.1291     5.5089    -1.5478 H       
  45 H45           -5.9060     5.4091    -1.5168 H       
@<TRIPOS>BOND
   1    1    2 1
   2    1    7 2
   3    1    6 1
   4    2    3 1
   5    2    9 1
   6    3    4 1
   7    3   27 1
   8    3   28 1
   9    4    5 1
  10    4   29 1
  11    4   30 1
  12    5    6 am
  13    5   19 1
  14    6   13 2
  15    7    8 1
  16    7   31 1
  17    8    9 2
  18    8   10 1
  19   10   11 1
  20   10   32 1
  21   10   33 1
  22   11   12 1
  23   12   14 ar
  24   12   15 ar
  25   14   18 ar
  26   14   34 1
  27   15   16 ar
  28   15   35 1
  29   16   17 ar
  30   16   36 1
  31   17   18 ar
  32   17   37 1
  33   18   38 1
  34   19   20 ar
  35   19   24 ar
  36   20   21 ar
  37   20   39 1
  38   21   22 ar
  39   22   23 ar
  40   22   25 1
  41   23   24 ar
  42   23   26 1
  43   25   40 1
  44   25   41 1
  45   25   42 1
  46   26   43 1
  47   26   44 1
  48   26   45 1

#	End of record

