#	Name: ASD01940431
#	Creating user name:	WinNT
#	Creation time:	15. 06. 2019 20:12

#	Modifying user name:	WinNT
#	Modification time:	15. 06. 2019 20:12

#	Program:	/corina/corina34_cracker 3.40 0067  02.08.2006

@<TRIPOS>MOLECULE
ASD01940431
  16   16    0    0    0
SMALL
NO_CHARGES


@<TRIPOS>ATOM
   1 C1            -0.0187     1.5258     0.0104 C.3     
   2 C2             0.0021    -0.0041     0.0020 C.3     
   3 C3            -1.4333    -0.5336     0.0129 C.3     
   4 C4            -1.6271    -2.0472     0.1249 C.3     
   5 C5            -1.9512    -1.1442     1.3167 C.3     
   6 Br6           -2.7144     0.4661    -1.0938 Br      
   7 O7             1.3220     2.0204     0.0003 O.3     
   8 H8            -0.5459     1.8868    -0.8726 H       
   9 H9            -0.5289     1.8773     0.9072 H       
  10 H10            0.5123    -0.3556    -0.8948 H       
  11 H11            0.5293    -0.3651     0.8851 H       
  12 H12           -2.4650    -2.4886    -0.4147 H       
  13 H13           -0.7319    -2.6657     0.1908 H       
  14 H14           -1.2693    -1.1686     2.1667 H       
  15 H15           -3.0024    -0.9915     1.5612 H       
  16 H16            1.3852     2.9853     0.0049 H       
@<TRIPOS>BOND
   1    1    2 1
   2    1    7 1
   3    1    8 1
   4    1    9 1
   5    2    3 1
   6    2   10 1
   7    2   11 1
   8    3    4 1
   9    3    5 1
  10    3    6 1
  11    4    5 1
  12    4   12 1
  13    4   13 1
  14    5   14 1
  15    5   15 1
  16    7   16 1

#	End of record

