#	Name: ASD01141107
#	Creating user name:	WinNT
#	Creation time:	15. 06. 2019 19:01

#	Modifying user name:	WinNT
#	Modification time:	15. 06. 2019 19:01

#	Program:	/corina/corina34_cracker 3.40 0067  02.08.2006

@<TRIPOS>MOLECULE
ASD01141107
  57   60    0    0    0
SMALL
NO_CHARGES


@<TRIPOS>ATOM
   1 C1            -0.1234     1.6639    -0.0480 C.3     
   2 C2             0.0506     0.1269     0.0887 C.3     
   3 C3            -0.7722     1.8223    -1.4193 C.3     
   4 C4             1.2480     2.3423    -0.0431 C.3     
   5 C5            -0.9332     2.1365     1.1433 C.3     
   6 C6             0.9878    -0.1118     1.2574 C.3     
   7 C7             0.5952    -0.2474    -1.2939 C.3     
   8 H8            -0.9120    -0.3506     0.2715 H       
   9 C9            -0.2670     0.6183    -2.2530 C.3     
  10 C10           -0.3379     3.1173    -2.0560 C.2     
  11 C11           -0.0940     1.8683     2.4039 C.3     
  12 C12            1.2802    -1.6052     1.4086 C.3     
  13 C13            0.2756     0.3937     2.5216 C.3     
  14 H14            1.9194     0.4316     1.0992 H       
  15 C15           -1.0900     4.3901    -1.7637 C.3     
  16 O16            0.6128     3.1351    -2.8004 O.2     
  17 C17            2.1843    -1.8267     2.6231 C.3     
  18 C18            1.1828     0.1764     3.7330 C.3     
  19 H19           -0.6417    -0.1783     2.6616 H       
  20 C20            1.4818    -1.3167     3.8827 C.3     
  21 C21            2.4926     0.9418     3.5337 C.3     
  22 C22            0.4798     0.6844     4.9935 C.3     
  23 C23            2.3856    -1.5379     5.0969 C.3     
  24 H24            0.5482    -1.8614     4.0232 H       
  25 C25            1.3836     0.4624     6.2076 C.3     
  26 C26            1.6805    -1.0312     6.3567 C.3     
  27 O27            0.4556    -1.7448     6.5369 O.3     
  28 H28           -0.0455    -1.4749     7.3187 H       
  29 H29           -1.8581     1.7919    -1.3291 H       
  30 H30            1.8458     1.9592    -0.8701 H       
  31 H31            1.1211     3.4191    -0.1546 H       
  32 H32            1.7541     2.1317     0.8991 H       
  33 H33           -1.1366     3.2035     1.0534 H       
  34 H34           -1.8706     1.5828     1.1974 H       
  35 H35            1.6492     0.0173    -1.3779 H       
  36 H36            0.4459    -1.3086    -1.4929 H       
  37 H37           -1.1125     0.0380    -2.6226 H       
  38 H38            0.3399     0.9694    -3.0875 H       
  39 H39            0.8187     2.4625     2.3579 H       
  40 H40           -0.6666     2.1637     3.2831 H       
  41 H41            0.3444    -2.1464     1.5485 H       
  42 H42            1.7806    -1.9702     0.5116 H       
  43 H43           -1.9094     4.1783    -1.0768 H       
  44 H44           -0.4143     5.1155    -1.3106 H       
  45 H45           -1.4903     4.7970    -2.6923 H       
  46 H46            2.3945    -2.8909     2.7301 H       
  47 H47            3.1193    -1.2841     2.4837 H       
  48 H48            2.2791     2.0053     3.4259 H       
  49 H49            3.1391     0.7867     4.3975 H       
  50 H50            2.9926     0.5787     2.6358 H       
  51 H51            0.2685     1.7484     4.8878 H       
  52 H52           -0.4547     0.1407     5.1322 H       
  53 H53            2.5984    -2.6017     5.2025 H       
  54 H54            3.3193    -0.9926     4.9589 H       
  55 H55            2.3180     1.0064     6.0693 H       
  56 H56            0.8820     0.8244     7.1050 H       
  57 H57            2.3242    -1.1892     7.2221 H       
@<TRIPOS>BOND
   1    1    2 1
   2    1    4 1
   3    1    3 1
   4    1    5 1
   5    2    6 1
   6    2    7 1
   7    2    8 1
   8    3   10 1
   9    3    9 1
  10    3   29 1
  11    4   30 1
  12    4   31 1
  13    4   32 1
  14    5   11 1
  15    5   33 1
  16    5   34 1
  17    6   12 1
  18    6   13 1
  19    6   14 1
  20    7    9 1
  21    7   35 1
  22    7   36 1
  23    9   37 1
  24    9   38 1
  25   10   15 1
  26   10   16 2
  27   11   13 1
  28   11   39 1
  29   11   40 1
  30   12   17 1
  31   12   41 1
  32   12   42 1
  33   13   18 1
  34   13   19 1
  35   15   43 1
  36   15   44 1
  37   15   45 1
  38   17   20 1
  39   17   46 1
  40   17   47 1
  41   18   20 1
  42   18   21 1
  43   18   22 1
  44   20   23 1
  45   20   24 1
  46   21   48 1
  47   21   49 1
  48   21   50 1
  49   22   25 1
  50   22   51 1
  51   22   52 1
  52   23   26 1
  53   23   53 1
  54   23   54 1
  55   25   26 1
  56   25   55 1
  57   25   56 1
  58   26   27 1
  59   26   57 1
  60   27   28 1

#	End of record

