#	Name: ASD03331676
#	Creating user name:	WinNT
#	Creation time:	15. 06. 2019 20:39

#	Modifying user name:	WinNT
#	Modification time:	15. 06. 2019 20:39

#	Program:	/corina/corina34_cracker 3.40 0067  02.08.2006

@<TRIPOS>MOLECULE
ASD03331676
  61   63    0    0    0
SMALL
NO_CHARGES


@<TRIPOS>ATOM
   1 C1            -2.2916     1.3978    -0.8086 C.3     
   2 N2            -2.1053    -0.0562    -0.9145 N.3     
   3 C3            -1.4984    -0.4223    -2.2070 C.3     
   4 C4            -0.2869     0.4492    -2.4162 C.2     
   5 N5            -0.0401     1.5805    -1.7052 N.pl3   
   6 C6            -0.9292     2.0863    -0.6555 C.3     
   7 C7             0.7351     0.2950    -3.2947 C.2     
   8 N8             1.5925     1.3251    -3.1115 N.2     
   9 C9             1.1315     2.1009    -2.1560 C.2     
  10 C10            1.7788     3.3337    -1.6557 C.ar    
  11 C11            0.8845    -0.7976    -4.2722 C.2     
  12 O12            0.0410    -1.6711    -4.3415 O.2     
  13 C13            2.8001     3.9363    -2.3907 C.ar    
  14 N14            1.9557    -0.8288    -5.0895 N.am    
  15 C15           -3.3749    -0.7659    -0.7091 C.3     
  16 C16            3.3995     5.0861    -1.9190 C.ar    
  17 C17            2.9901     5.6411    -0.7197 C.ar    
  18 C18            1.9782     5.0480     0.0141 C.ar    
  19 C19            1.3666     3.9015    -0.4499 C.ar    
  20 C20            2.1041    -1.9150    -6.0614 C.3     
  21 C21           -3.1603    -2.2662    -0.9191 C.3     
  22 C22            2.9604    -1.4477    -7.2100 C.2     
  23 C23            2.7683    -3.1165    -5.3859 C.3     
  24 O24           -2.2731    -2.7654     0.0838 O.3     
  25 C25            1.9910    -3.4841    -4.1203 C.3     
  26 C26            2.7689    -4.3063    -6.3477 C.3     
  27 C27            4.2091    -2.7604    -5.0141 C.3     
  28 N28            3.0602    -2.1982    -8.3251 N.am    
  29 O29            3.5598    -0.3964    -7.1311 O.2     
  30 C30            3.9620    -1.7896    -9.4048 C.3     
  31 H31           -2.7848     1.7664    -1.7081 H       
  32 H32           -2.9103     1.6215     0.0604 H       
  33 H33           -1.1999    -1.4704    -2.1901 H       
  34 H34           -2.2154    -0.2557    -3.0109 H       
  35 H35           -1.0480     3.1645    -0.7622 H       
  36 H36           -0.5094     1.8571     0.3239 H       
  37 H37            3.1211     3.5036    -3.3267 H       
  38 H38            2.6283    -0.1321    -5.0343 H       
  39 H39           -3.7304    -0.5883     0.3058 H       
  40 H40           -4.1144    -0.4014    -1.4221 H       
  41 H41            4.1902     5.5536    -2.4870 H       
  42 H42            3.4626     6.5409    -0.3545 H       
  43 H43            1.6635     5.4857     0.9499 H       
  44 H44            0.5768     3.4394     0.1237 H       
  45 H45            1.1221    -2.2051    -6.4348 H       
  46 H46           -4.1170    -2.7836    -0.8480 H       
  47 H47           -2.7273    -2.4368    -1.9048 H       
  48 H48           -2.0913    -3.7124     0.0120 H       
  49 H49            0.9646    -3.7377    -4.3851 H       
  50 H50            2.4642    -4.3400    -3.6391 H       
  51 H51            1.9906    -2.6364    -3.4351 H       
  52 H52            3.2680    -4.0240    -7.2747 H       
  53 H53            3.2975    -5.1428    -5.8906 H       
  54 H54            1.7415    -4.5999    -6.5631 H       
  55 H55            4.2087    -1.9128    -4.3289 H       
  56 H56            4.6823    -3.6164    -4.5329 H       
  57 H57            4.7628    -2.4986    -5.9157 H       
  58 H58            2.5348    -3.0089    -8.4126 H       
  59 H59            3.6656    -0.8078    -9.7739 H       
  60 H60            4.9833    -1.7425    -9.0269 H       
  61 H61            3.9083    -2.5145   -10.2170 H       
@<TRIPOS>BOND
   1    1    2 1
   2    1    6 1
   3    1   31 1
   4    1   32 1
   5    2    3 1
   6    2   15 1
   7    3    4 1
   8    3   33 1
   9    3   34 1
  10    4    5 1
  11    4    7 2
  12    5    6 1
  13    5    9 1
  14    6   35 1
  15    6   36 1
  16    7    8 1
  17    7   11 1
  18    8    9 2
  19    9   10 1
  20   10   13 ar
  21   10   19 ar
  22   11   12 2
  23   11   14 am
  24   13   16 ar
  25   13   37 1
  26   14   20 1
  27   14   38 1
  28   15   21 1
  29   15   39 1
  30   15   40 1
  31   16   17 ar
  32   16   41 1
  33   17   18 ar
  34   17   42 1
  35   18   19 ar
  36   18   43 1
  37   19   44 1
  38   20   22 1
  39   20   23 1
  40   20   45 1
  41   21   24 1
  42   21   46 1
  43   21   47 1
  44   22   28 am
  45   22   29 2
  46   23   25 1
  47   23   26 1
  48   23   27 1
  49   24   48 1
  50   25   49 1
  51   25   50 1
  52   25   51 1
  53   26   52 1
  54   26   53 1
  55   26   54 1
  56   27   55 1
  57   27   56 1
  58   27   57 1
  59   28   30 1
  60   28   58 1
  61   30   59 1
  62   30   60 1
  63   30   61 1

#	End of record

