#	Name: ASD00311428
#	Creating user name:	WinNT
#	Creation time:	15. 06. 2019 18:34

#	Modifying user name:	WinNT
#	Modification time:	15. 06. 2019 18:34

#	Program:	/corina/corina34_cracker 3.40 0067  02.08.2006

@<TRIPOS>MOLECULE
ASD00311428
  46   49    0    0    0
SMALL
NO_CHARGES


@<TRIPOS>ATOM
   1 C1            -0.0167     1.3780     0.0096 C.2     
   2 C2             0.0021    -0.0041     0.0020 C.2     
   3 C3             1.2588    -0.6766    -0.0131 C.2     
   4 C4             2.4315     0.0675    -0.0199 C.2     
   5 C5             2.3574     1.4754    -0.0117 C.2     
   6 N6             1.1649     2.0906     0.0022 N.am    
   7 C7            -1.3431    -0.5749     0.0118 C.2     
   8 C8            -2.3222     0.3256     0.0260 C.2     
   9 S9            -1.6794     1.9560     0.0358 S.3     
  10 O10            3.3823     2.1375    -0.0175 O.2     
  11 C11            3.7477    -0.6118    -0.0352 C.ar    
  12 C12            4.5938    -0.4743    -1.1354 C.ar    
  13 C13            5.8187    -1.1096    -1.1437 C.ar    
  14 C14            6.2081    -1.8816    -0.0637 C.ar    
  15 C15            5.3730    -2.0221     1.0303 C.ar    
  16 C16            4.1483    -1.3867     1.0530 C.ar    
  17 C17            7.5472    -2.5727    -0.0793 C.3     
  18 O18            1.3089    -2.0290    -0.0204 O.3     
  19 C19           -1.5956    -2.0354     0.0056 C.ar    
  20 C20           -1.2009    -2.8207     1.0928 C.ar    
  21 C21           -1.4416    -4.1862     1.0787 C.ar    
  22 C22           -2.0704    -4.7678    -0.0090 C.ar    
  23 C23           -2.4615    -3.9922    -1.0857 C.ar    
  24 C24           -2.2325    -2.6308    -1.0816 C.ar    
  25 O25           -0.5832    -2.2477     2.1598 O.3     
  26 C26           -1.4198    -1.7802     3.2198 C.3     
  27 C27           -2.3295    -6.2523    -0.0205 C.3     
  28 F28           -1.0618    -4.9495     2.1267 F       
  29 H29            1.1327     3.0600     0.0077 H       
  30 H30           -3.3748     0.0837     0.0347 H       
  31 H31            4.2908     0.1278    -1.9792 H       
  32 H32            6.4746    -1.0042    -1.9952 H       
  33 H33            5.6823    -2.6264     1.8703 H       
  34 H34            3.4993    -1.4933     1.9097 H       
  35 H35            8.3011    -1.9139     0.3516 H       
  36 H36            7.4892    -3.4904     0.5061 H       
  37 H37            7.8197    -2.8137    -1.1067 H       
  38 H38            2.2062    -2.3894    -0.0307 H       
  39 H39           -2.9515    -4.4527    -1.9307 H       
  40 H40           -2.5431    -2.0282    -1.9223 H       
  41 H41           -0.8019    -1.3465     4.0060 H       
  42 H42           -2.1037    -1.0231     2.8359 H       
  43 H43           -1.9921    -2.6143     3.6258 H       
  44 H44           -3.3053    -6.4542     0.4214 H       
  45 H45           -2.3136    -6.6160    -1.0479 H       
  46 H46           -1.5571    -6.7604     0.5569 H       
@<TRIPOS>BOND
   1    1    2 2
   2    1    6 1
   3    1    9 1
   4    2    3 1
   5    2    7 1
   6    3    4 2
   7    3   18 1
   8    4    5 1
   9    4   11 1
  10    5    6 am
  11    5   10 2
  12    6   29 1
  13    7    8 2
  14    7   19 1
  15    8    9 1
  16    8   30 1
  17   11   12 ar
  18   11   16 ar
  19   12   13 ar
  20   12   31 1
  21   13   14 ar
  22   13   32 1
  23   14   15 ar
  24   14   17 1
  25   15   16 ar
  26   15   33 1
  27   16   34 1
  28   17   35 1
  29   17   36 1
  30   17   37 1
  31   18   38 1
  32   19   20 ar
  33   19   24 ar
  34   20   21 ar
  35   20   25 1
  36   21   22 ar
  37   21   28 1
  38   22   23 ar
  39   22   27 1
  40   23   24 ar
  41   23   39 1
  42   24   40 1
  43   25   26 1
  44   26   41 1
  45   26   42 1
  46   26   43 1
  47   27   44 1
  48   27   45 1
  49   27   46 1

#	End of record

