#	Name: ASD09080096
#	Creating user name:	WinNT
#	Creation time:	15. 06. 2019 21:20

#	Modifying user name:	WinNT
#	Modification time:	15. 06. 2019 21:20

#	Program:	/corina/corina34_cracker 3.40 0067  02.08.2006

@<TRIPOS>MOLECULE
ASD09080096
  56   57    0    0    0
SMALL
NO_CHARGES


@<TRIPOS>ATOM
   1 C1            -0.5924     0.5325    -1.8108 C.ar    
   2 C2            -0.4262    -0.8408    -1.7645 C.ar    
   3 C3             0.8191    -1.3799    -1.5055 C.ar    
   4 C4             1.9088    -0.5387    -1.2912 C.ar    
   5 C5             1.7366     0.8430    -1.3394 C.ar    
   6 C6             0.4872     1.3724    -1.5986 C.ar    
   7 C7             3.2486    -1.1125    -1.0121 C.ar    
   8 C8             4.3386    -0.2714    -0.7978 C.ar    
   9 C9             3.4199    -2.4942    -0.9578 C.ar    
  10 C10            4.6683    -3.0225    -0.6978 C.ar    
  11 C11            5.7480    -2.1830    -0.4910 C.ar    
  12 C12            5.5825    -0.8105    -0.5386 C.ar    
  13 Cl13           0.2709     3.0938    -1.6589 Cl      
  14 Cl14          -1.7851    -1.8877    -2.0317 Cl      
  15 C15            7.1084    -2.7657    -0.2072 C.3     
  16 C16            7.8552    -2.9830    -1.5247 C.3     
  17 N17            8.1130    -1.6879    -2.1593 N.am    
  18 C18            9.1842    -3.6885    -1.2474 C.3     
  19 C19            9.9271    -3.9134    -2.5658 C.3     
  20 C20            7.4962    -1.3687    -3.3143 C.2     
  21 O21            6.7993    -2.1872    -3.8759 O.2     
  22 C22            7.6723     0.0052    -3.9079 C.3     
  23 O23            6.9251     0.0988    -5.1223 O.3     
  24 C24            7.0243     1.3690    -5.7695 C.3     
  25 O25           10.0755    -2.6664    -3.2477 O.3     
  26 O26            9.9826    -2.8778    -0.3830 O.3     
  27 C27           11.2877    -4.4962    -2.2827 C.2     
  28 O28           12.2827    -3.8639    -2.5474 O.2     
  29 O29           11.3943    -5.7176    -1.7364 O.3     
  30 C30           12.6567    -7.6115    -0.8706 C.3     
  31 C31           12.7361    -6.2154    -1.4915 C.3     
  32 H32           -1.5667     0.9501    -2.0177 H       
  33 H33            0.9476    -2.4516    -1.4688 H       
  34 H34            2.5782     1.4992    -1.1736 H       
  35 H35            4.2105     0.8003    -0.8347 H       
  36 H36            2.5775    -3.1505    -1.1184 H       
  37 H37            4.8022    -4.0933    -0.6555 H       
  38 H38            6.4289    -0.1596    -0.3764 H       
  39 H39            7.6740    -2.0784     0.4220 H       
  40 H40            6.9948    -3.7197     0.3077 H       
  41 H41            7.2487    -3.5987    -2.1889 H       
  42 H42            8.7277    -1.0602    -1.7481 H       
  43 H43            8.9926    -4.6494    -0.7698 H       
  44 H44            9.3591    -4.6034    -3.1899 H       
  45 H45            7.3140     0.7546    -3.2022 H       
  46 H46            8.7281     0.1781    -4.1167 H       
  47 H47            6.4295     1.3589    -6.6828 H       
  48 H48            6.6526     2.1467    -5.1024 H       
  49 H49            8.0666     1.5702    -6.0169 H       
  50 H50           10.5722    -2.0026    -2.7499 H       
  51 H51           10.1336    -1.9814    -0.7130 H       
  52 H52           13.6640    -7.9852    -0.6867 H       
  53 H53           12.1107    -7.5597     0.0714 H       
  54 H54           12.1387    -8.2843    -1.5542 H       
  55 H55           13.2820    -6.2672    -2.4335 H       
  56 H56           13.2540    -5.5427    -0.8079 H       
@<TRIPOS>BOND
   1    1    2 ar
   2    1    6 ar
   3    1   32 1
   4    2    3 ar
   5    2   14 1
   6    3    4 ar
   7    3   33 1
   8    4    5 ar
   9    4    7 1
  10    5    6 ar
  11    5   34 1
  12    6   13 1
  13    7    8 ar
  14    7    9 ar
  15    8   12 ar
  16    8   35 1
  17    9   10 ar
  18    9   36 1
  19   10   11 ar
  20   10   37 1
  21   11   12 ar
  22   11   15 1
  23   12   38 1
  24   15   16 1
  25   15   39 1
  26   15   40 1
  27   16   17 1
  28   16   18 1
  29   16   41 1
  30   17   20 am
  31   17   42 1
  32   18   19 1
  33   18   26 1
  34   18   43 1
  35   19   25 1
  36   19   27 1
  37   19   44 1
  38   20   21 2
  39   20   22 1
  40   22   23 1
  41   22   45 1
  42   22   46 1
  43   23   24 1
  44   24   47 1
  45   24   48 1
  46   24   49 1
  47   25   50 1
  48   26   51 1
  49   27   28 2
  50   27   29 1
  51   29   31 1
  52   30   31 1
  53   30   52 1
  54   30   53 1
  55   30   54 1
  56   31   55 1
  57   31   56 1

#	End of record

