#	Name: ASD00840626
#	Creating user name:	WinNT
#	Creation time:	15. 06. 2019 18:39

#	Modifying user name:	WinNT
#	Modification time:	15. 06. 2019 18:39

#	Program:	/corina/corina34_cracker 3.40 0067  02.08.2006

@<TRIPOS>MOLECULE
ASD00840626
  97  102    0    0    0
SMALL
NO_CHARGES


@<TRIPOS>ATOM
   1 N1             1.0484     1.4362    -0.7550 N.ar    
   2 C2             1.3088     0.1435    -0.8558 C.ar    
   3 C3             1.2272    -0.6839     0.2571 C.ar    
   4 C4             0.8689    -0.1378     1.4771 C.ar    
   5 C5             0.6036     1.2234     1.5410 C.ar    
   6 C6             0.7043     1.9856     0.3944 C.ar    
   7 C7             1.5244    -2.1564     0.1374 C.3     
   8 C8             1.2345    -2.8642     1.4438 C.2     
   9 C9             0.7101    -2.7757    -1.0003 C.3     
  10 C10           -0.7520    -2.4754    -0.7928 C.2     
  11 N11           -1.6726    -3.0006    -1.6254 N.am    
  12 O12           -1.1003    -1.7612     0.1235 O.2     
  13 C13           -3.0925    -2.6355    -1.5077 C.3     
  14 C14           -3.6003    -2.2046    -2.8878 C.3     
  15 N15           -3.3098    -3.2622    -3.8651 N.3     
  16 C16           -1.8630    -3.4712    -4.0098 C.3     
  17 C17           -1.2831    -3.9493    -2.6796 C.3     
  18 C18           -3.9312    -2.9652    -5.1626 C.3     
  19 C19           -3.5059    -4.0205    -6.1872 C.3     
  20 C20           -4.2041    -3.7409    -7.5201 C.3     
  21 N21           -5.6596    -3.7772    -7.3288 N.3     
  22 C22           -6.0970    -2.7411    -6.3846 C.3     
  23 C23           -5.4554    -2.9908    -5.0178 C.3     
  24 C24           -6.3626    -3.6504    -8.6124 C.3     
  25 O25            0.1593    -2.9371     2.0001 O.2     
  26 N26            2.3912    -3.3972     1.8709 N.am    
  27 C27            3.0032    -2.3825    -0.0814 C.ar    
  28 C28            3.4476    -3.1351     1.0031 C.ar    
  29 C29            3.8660    -1.9978    -1.0761 C.ar    
  30 C30            5.2151    -2.3634    -1.0071 C.ar    
  31 C31            5.6691    -3.1200     0.0800 C.ar    
  32 C32            4.7918    -3.5014     1.0725 C.ar    
  33 F33            6.9696    -3.4780     0.1558 F       
  34 C34            2.2505    -5.9577     2.8704 C.ar    
  35 C35            0.9990    -6.3590     2.4269 C.ar    
  36 C36            3.2688    -6.8836     2.9916 C.ar    
  37 C37            3.0414    -8.2089     2.6709 C.ar    
  38 C38            1.7946    -8.6116     2.2286 C.ar    
  39 C39            0.7731    -7.6899     2.1061 C.ar    
  40 H40            1.6194    -9.6475     1.9786 H       
  41 O41           -0.0044    -5.4503     2.3072 O.3     
  42 C42           -1.2667    -5.9348     1.8446 C.3     
  43 C43           -2.2633    -4.7760     1.7748 C.3     
  44 C44           -7.8511    -3.9401    -8.4094 C.3     
  45 C45           -8.5833    -3.8080    -9.7463 C.3     
  46 C46            6.1239    -1.9673    -2.0405 C.1     
  47 N47            6.8449    -1.6531    -2.8602 N.1     
  48 S48            2.5434    -4.2672     3.2718 S.o2    
  49 O49            3.9090    -4.1764     3.6542 O.2     
  50 O50            1.4721    -3.8632     4.1134 O.2     
  51 O51            1.6587    -0.3797    -2.0578 O.3     
  52 C52            2.1523    -0.2299    -4.4188 C.3     
  53 C53            1.6163     0.4982    -3.1845 C.3     
  54 H54            0.7969    -0.7566     2.3594 H       
  55 H55            0.3210     1.6810     2.4775 H       
  56 H56            0.4993     3.0450     0.4388 H       
  57 H57            1.0361    -2.3546    -1.9514 H       
  58 H58            0.8616    -3.8550    -1.0098 H       
  59 H59           -3.6641    -3.4957    -1.1594 H       
  60 H60           -3.2013    -1.8106    -0.8036 H       
  61 H61           -4.6763    -2.0362    -2.8432 H       
  62 H62           -3.0998    -1.2841    -3.1884 H       
  63 H63           -1.6790    -4.2213    -4.7789 H       
  64 H64           -1.3867    -2.5331    -4.2948 H       
  65 H65           -0.1963    -3.9956    -2.7495 H       
  66 H66           -1.6798    -4.9360    -2.4408 H       
  67 H67           -3.6131    -1.9793    -5.5017 H       
  68 H68           -2.4257    -3.9781    -6.3263 H       
  69 H69           -3.7887    -5.0104    -5.8289 H       
  70 H70           -3.9101    -2.7567    -7.8846 H       
  71 H71           -3.9144    -4.4990    -8.2478 H       
  72 H72           -5.7941    -1.7615    -6.7544 H       
  73 H73           -7.1822    -2.7729    -6.2876 H       
  74 H74           -5.7688    -3.9644    -4.6411 H       
  75 H75           -5.7679    -2.2127    -4.3214 H       
  76 H76           -6.2385    -2.6377    -8.9961 H       
  77 H77           -5.9478    -4.3626    -9.3257 H       
  78 H78            3.5051    -1.4146    -1.9103 H       
  79 H79            5.1473    -4.0851     1.9088 H       
  80 H80            4.2434    -6.5716     3.3369 H       
  81 H81            3.8389    -8.9310     2.7657 H       
  82 H82           -0.2006    -8.0050     1.7612 H       
  83 H83           -1.1471    -6.3713     0.8530 H       
  84 H84           -1.6391    -6.6934     2.5330 H       
  85 H85           -2.3829    -4.3394     2.7664 H       
  86 H86           -1.8908    -4.0174     1.0864 H       
  87 H87           -3.2261    -5.1455     1.4220 H       
  88 H88           -7.9752    -4.9527    -8.0257 H       
  89 H89           -8.2659    -3.2279    -7.6961 H       
  90 H90           -8.4593    -2.7953   -10.1300 H       
  91 H91           -8.1685    -4.5202   -10.4597 H       
  92 H92           -9.6438    -4.0144    -9.6017 H       
  93 H93            3.1492    -0.6170    -4.2079 H       
  94 H94            1.4875    -1.0562    -4.6704 H       
  95 H95            2.2021     0.4647    -5.2573 H       
  96 H96            0.5872     0.8091    -3.3644 H       
  97 H97            2.2313     1.3757    -2.9848 H       
@<TRIPOS>BOND
   1    1    2 ar
   2    1    6 ar
   3    2    3 ar
   4    2   51 1
   5    3    4 ar
   6    3    7 1
   7    4    5 ar
   8    4   54 1
   9    5    6 ar
  10    5   55 1
  11    6   56 1
  12    7    8 1
  13    7    9 1
  14    7   27 1
  15    8   25 2
  16    8   26 am
  17    9   10 1
  18    9   57 1
  19    9   58 1
  20   10   11 am
  21   10   12 2
  22   11   13 1
  23   11   17 1
  24   13   14 1
  25   13   59 1
  26   13   60 1
  27   14   15 1
  28   14   61 1
  29   14   62 1
  30   15   16 1
  31   15   18 1
  32   16   17 1
  33   16   63 1
  34   16   64 1
  35   17   65 1
  36   17   66 1
  37   18   19 1
  38   18   23 1
  39   18   67 1
  40   19   20 1
  41   19   68 1
  42   19   69 1
  43   20   21 1
  44   20   70 1
  45   20   71 1
  46   21   22 1
  47   21   24 1
  48   22   23 1
  49   22   72 1
  50   22   73 1
  51   23   74 1
  52   23   75 1
  53   24   44 1
  54   24   76 1
  55   24   77 1
  56   26   48 am
  57   26   28 1
  58   27   28 ar
  59   27   29 ar
  60   28   32 ar
  61   29   30 ar
  62   29   78 1
  63   30   31 ar
  64   30   46 1
  65   31   32 ar
  66   31   33 1
  67   32   79 1
  68   34   35 ar
  69   34   36 ar
  70   34   48 1
  71   35   41 1
  72   35   39 ar
  73   36   37 ar
  74   36   80 1
  75   37   38 ar
  76   37   81 1
  77   38   39 ar
  78   38   40 1
  79   39   82 1
  80   41   42 1
  81   42   43 1
  82   42   83 1
  83   42   84 1
  84   43   85 1
  85   43   86 1
  86   43   87 1
  87   44   45 1
  88   44   88 1
  89   44   89 1
  90   45   90 1
  91   45   91 1
  92   45   92 1
  93   46   47 3
  94   48   49 2
  95   48   50 2
  96   51   53 1
  97   52   53 1
  98   52   93 1
  99   52   94 1
 100   52   95 1
 101   53   96 1
 102   53   97 1

#	End of record

