#	Name: ASD05430728
#	Creating user name:	WinNT
#	Creation time:	15. 06. 2019 21:00

#	Modifying user name:	WinNT
#	Modification time:	15. 06. 2019 21:00

#	Program:	/corina/corina34_cracker 3.40 0067  02.08.2006

@<TRIPOS>MOLECULE
ASD05430728
  58   62    0    0    0
SMALL
NO_CHARGES


@<TRIPOS>ATOM
   1 C1            -0.0187     1.2153     0.0412 C.2     
   2 C2            -0.2134    -0.0774    -0.4611 C.2     
   3 C3            -1.5066    -0.4751    -0.8502 C.2     
   4 C4            -2.5349     0.3898    -0.7346 C.2     
   5 N5            -2.3507     1.6497    -0.2466 N.am    
   6 C6            -1.1355     2.0805     0.1452 C.2     
   7 O7            -0.9963     3.2121     0.5783 O.2     
   8 C8            -3.4996     2.5526    -0.1413 C.3     
   9 C9            -4.1139     2.7601    -1.5271 C.3     
  10 C10           -4.5292     1.9502     0.7795 C.ar    
  11 C11           -4.1271     1.2005     1.8687 C.ar    
  12 C12           -5.0723     0.6464     2.7156 C.ar    
  13 C13           -6.4203     0.8437     2.4709 C.ar    
  14 C14           -6.8219     1.5947     1.3797 C.ar    
  15 C15           -5.8748     2.1525     0.5374 C.ar    
  16 N16            1.2889     1.3405     0.3354 N.2     
  17 C17            1.9111     0.2216     0.0514 C.2     
  18 N18            1.0129    -0.6873    -0.4468 N.pl3   
  19 C19            3.3569    -0.0222     0.2388 C.ar    
  20 C20            4.2605     1.0388     0.1618 C.ar    
  21 C21            5.6121     0.8063     0.3377 C.ar    
  22 C22            6.0693    -0.4860     0.5912 C.ar    
  23 C23            5.1696    -1.5408     0.6676 C.ar    
  24 C24            3.8204    -1.3134     0.4987 C.ar    
  25 N25            7.4399    -0.7211     0.7690 N.pl3   
  26 C26            8.4429    -0.3043    -0.0465 C.2     
  27 N27            9.5789    -0.7148     0.4486 N.2     
  28 C28            9.3496    -1.3978     1.5799 C.2     
  29 C29            8.0213    -1.4099     1.8018 C.2     
  30 C30           10.3976    -2.0364     2.4545 C.3     
  31 F31           -8.1373     1.7877     1.1394 F       
  32 F32           -4.6789    -0.0868     3.7799 F       
  33 C33            1.3096    -2.0543    -0.8821 C.3     
  34 O34            6.4949     1.8375     0.2629 O.3     
  35 C35            5.9564     3.1347    -0.0002 C.3     
  36 H36           -1.6744    -1.4683    -1.2399 H       
  37 H37           -3.5244     0.0783    -1.0349 H       
  38 H38           -3.1720     3.5124     0.2583 H       
  39 H39           -4.9687     3.4319    -1.4487 H       
  40 H40           -3.3692     3.1958    -2.1932 H       
  41 H41           -4.4415     1.8003    -1.9267 H       
  42 H42           -3.0752     1.0464     2.0593 H       
  43 H43           -7.1582     0.4116     3.1306 H       
  44 H44           -6.1879     2.7389    -0.3138 H       
  45 H45            3.9047     2.0394    -0.0350 H       
  46 H46            5.5270    -2.5408     0.8642 H       
  47 H47            3.1227    -2.1355     0.5589 H       
  48 H48            8.3211     0.2701    -0.9529 H       
  49 H49            7.5116    -1.8775     2.6312 H       
  50 H50           10.7284    -1.3204     3.2069 H       
  51 H51            9.9752    -2.9121     2.9472 H       
  52 H52           11.2471    -2.3385     1.8420 H       
  53 H53            1.2914    -2.7219    -0.0207 H       
  54 H54            0.5611    -2.3754    -1.6065 H       
  55 H55            2.2969    -2.0826    -1.3430 H       
  56 H56            6.7658     3.8640    -0.0341 H       
  57 H57            5.4360     3.1247    -0.9579 H       
  58 H58            5.2567     3.4049     0.7907 H       
@<TRIPOS>BOND
   1    1    2 2
   2    1   16 1
   3    1    6 1
   4    2    3 1
   5    2   18 1
   6    3    4 2
   7    3   36 1
   8    4    5 1
   9    4   37 1
  10    5    6 am
  11    5    8 1
  12    6    7 2
  13    8    9 1
  14    8   10 1
  15    8   38 1
  16    9   39 1
  17    9   40 1
  18    9   41 1
  19   10   11 ar
  20   10   15 ar
  21   11   12 ar
  22   11   42 1
  23   12   13 ar
  24   12   32 1
  25   13   14 ar
  26   13   43 1
  27   14   15 ar
  28   14   31 1
  29   15   44 1
  30   16   17 2
  31   17   18 1
  32   17   19 1
  33   18   33 1
  34   19   20 ar
  35   19   24 ar
  36   20   21 ar
  37   20   45 1
  38   21   22 ar
  39   21   34 1
  40   22   23 ar
  41   22   25 1
  42   23   24 ar
  43   23   46 1
  44   24   47 1
  45   25   26 1
  46   25   29 1
  47   26   27 2
  48   26   48 1
  49   27   28 1
  50   28   29 2
  51   28   30 1
  52   29   49 1
  53   30   50 1
  54   30   51 1
  55   30   52 1
  56   33   53 1
  57   33   54 1
  58   33   55 1
  59   34   35 1
  60   35   56 1
  61   35   57 1
  62   35   58 1

#	End of record

