#	Name: ASD00069395
#	Creating user name:	WinNT
#	Creation time:	15. 06. 2019 18:29

#	Modifying user name:	WinNT
#	Modification time:	15. 06. 2019 18:29

#	Program:	/corina/corina34_cracker 3.40 0067  02.08.2006

@<TRIPOS>MOLECULE
ASD00069395
  48   49    0    0    0
SMALL
NO_CHARGES


@<TRIPOS>ATOM
   1 C1            -0.0168     1.3912     0.0097 C.ar    
   2 C2             0.0021    -0.0041     0.0020 C.ar    
   3 N3             1.1731    -0.6338    -0.0125 N.ar    
   4 C4             2.3073     0.0500    -0.0197 C.ar    
   5 N5             2.3207     1.3748    -0.0127 N.ar    
   6 C6             1.1900     2.0673     0.0018 C.ar    
   7 Cl7            1.2237     3.8029     0.0102 Cl      
   8 N8            -1.1823    -0.7230     0.0099 N.3     
   9 C9            -0.9206    -2.1696    -0.0004 C.3     
  10 C10           -2.0157    -0.3526     1.1630 C.3     
  11 C11           -3.3364    -1.1245     1.1001 C.3     
  12 O12           -3.0613    -2.5273     1.0593 O.3     
  13 C13           -2.2522    -2.9233    -0.0516 C.3     
  14 C14           -1.9901    -4.4290     0.0183 C.3     
  15 N15           -3.2533    -5.1527    -0.1454 N.am    
  16 O16           -4.4273    -7.1653    -0.2684 O.3     
  17 C17           -4.3661    -8.6154    -0.2283 C.3     
  18 C18           -3.8068    -9.0651     1.1229 C.3     
  19 C19           -5.7716    -9.1905    -0.4154 C.3     
  20 C20           -3.4557    -9.1187    -1.3502 C.3     
  21 C21           -3.2664    -6.5002    -0.1180 C.2     
  22 O22           -2.2305    -7.1147     0.0424 O.2     
  23 N23            3.5088    -0.6366    -0.0344 N.pl3   
  24 C24            4.7742     0.1015    -0.0425 C.3     
  25 H25           -0.9523     1.9309     0.0171 H       
  26 H26           -0.3238    -2.4252    -0.8760 H       
  27 H27           -0.3793    -2.4480     0.9037 H       
  28 H28           -1.4919    -0.6020     2.0858 H       
  29 H29           -2.2183     0.7181     1.1367 H       
  30 H30           -3.9337    -0.8963     1.9829 H       
  31 H31           -3.8849    -0.8349     0.2039 H       
  32 H32           -2.7693    -2.6859    -0.9813 H       
  33 H33           -1.3017    -4.7152    -0.7769 H       
  34 H34           -1.5518    -4.6770     0.9850 H       
  35 H35           -4.0802    -4.6622    -0.2734 H       
  36 H36           -4.4554    -8.7066     1.9221 H       
  37 H37           -3.7609   -10.1537     1.1530 H       
  38 H38           -2.8055    -8.6554     1.2562 H       
  39 H39           -6.1701    -8.8701    -1.3780 H       
  40 H40           -5.7257   -10.2791    -0.3853 H       
  41 H41           -6.4202    -8.8320     0.3839 H       
  42 H42           -2.4544    -8.7090    -1.2169 H       
  43 H43           -3.4098   -10.2073    -1.3201 H       
  44 H44           -3.8542    -8.7984    -2.3128 H       
  45 H45            3.5130    -1.6066    -0.0393 H       
  46 H46            4.8209     0.7329    -0.9298 H       
  47 H47            4.8375     0.7239     0.8501 H       
  48 H48            5.6058    -0.6031    -0.0538 H       
@<TRIPOS>BOND
   1    1    2 ar
   2    1    6 ar
   3    1   25 1
   4    2    3 ar
   5    2    8 1
   6    3    4 ar
   7    4    5 ar
   8    4   23 1
   9    5    6 ar
  10    6    7 1
  11    8    9 1
  12    8   10 1
  13    9   13 1
  14    9   26 1
  15    9   27 1
  16   10   11 1
  17   10   28 1
  18   10   29 1
  19   11   12 1
  20   11   30 1
  21   11   31 1
  22   12   13 1
  23   13   14 1
  24   13   32 1
  25   14   15 1
  26   14   33 1
  27   14   34 1
  28   15   21 am
  29   15   35 1
  30   16   17 1
  31   16   21 1
  32   17   18 1
  33   17   19 1
  34   17   20 1
  35   18   36 1
  36   18   37 1
  37   18   38 1
  38   19   39 1
  39   19   40 1
  40   19   41 1
  41   20   42 1
  42   20   43 1
  43   20   44 1
  44   21   22 2
  45   23   24 1
  46   23   45 1
  47   24   46 1
  48   24   47 1
  49   24   48 1

#	End of record

