#	Name: ASD01903146
#	Creating user name:	WinNT
#	Creation time:	15. 06. 2019 19:54

#	Modifying user name:	WinNT
#	Modification time:	15. 06. 2019 19:54

#	Program:	/corina/corina34_cracker 3.40 0067  02.08.2006

@<TRIPOS>MOLECULE
ASD01903146
  46   48    0    0    0
SMALL
NO_CHARGES


@<TRIPOS>ATOM
   1 C1             1.7237    -2.2052     0.5856 C.ar    
   2 C2             0.7497    -1.5782    -0.1752 C.ar    
   3 C3             1.0436    -0.3754    -0.7979 C.ar    
   4 N4             2.2312     0.1758    -0.6757 N.ar    
   5 C5             3.1918    -0.3918     0.0437 C.ar    
   6 C6             2.9664    -1.6013     0.6969 C.ar    
   7 C7             4.5143     0.2664     0.1525 C.2     
   8 N8             4.7384     1.4367    -0.4772 N.am    
   9 O9             5.3972    -0.2488     0.8097 O.2     
  10 C10            5.9546     2.1039    -0.3007 C.ar    
  11 C11            7.1284     1.3797    -0.1367 C.ar    
  12 C12            8.3278     2.0418     0.0374 C.ar    
  13 C13            8.3610     3.4243     0.0486 C.ar    
  14 C14            7.1940     4.1483    -0.1139 C.ar    
  15 C15            5.9922     3.4924    -0.2947 C.ar    
  16 S16            9.8934     4.2650     0.2711 S.o2    
  17 O17            9.5698     5.5906     0.6677 O.2     
  18 O18           10.7163     3.4016     1.0434 O.2     
  19 N19           10.6080     4.3838    -1.2181 N.am    
  20 C20            9.9972     5.1302    -2.2283 C.ar    
  21 C21            9.4537     4.4902    -3.3350 C.ar    
  22 C22            8.8501     5.2313    -4.3319 C.ar    
  23 C23            8.7862     6.6088    -4.2292 C.ar    
  24 C24            9.3262     7.2491    -3.1289 C.ar    
  25 C25            9.9267     6.5137    -2.1259 C.ar    
  26 C26           10.5144     7.2123    -0.9269 C.3     
  27 C27            9.5233     2.9891    -3.4479 C.3     
  28 H28            1.5177    -3.1408     1.0842 H       
  29 H29           -0.2288    -2.0228    -0.2822 H       
  30 H30            0.2870     0.1158    -1.3918 H       
  31 H31            3.7489    -2.0621     1.2814 H       
  32 H32            4.0562     1.8161    -1.0529 H       
  33 H33            7.1031     0.3001    -0.1450 H       
  34 H34            9.2408     1.4793     0.1653 H       
  35 H35            7.2233     5.2278    -0.1043 H       
  36 H36            5.0812     4.0584    -0.4216 H       
  37 H37           11.4508     3.9350    -1.3887 H       
  38 H38            8.4277     4.7343    -5.1927 H       
  39 H39            8.3139     7.1860    -5.0104 H       
  40 H40            9.2747     8.3251    -3.0519 H       
  41 H41            9.7294     7.3988    -0.1940 H       
  42 H42           11.2852     6.5833    -0.4816 H       
  43 H43           10.9537     8.1602    -1.2378 H       
  44 H44            8.6390     2.5487    -2.9873 H       
  45 H45            9.5647     2.7054    -4.4995 H       
  46 H46           10.4165     2.6274    -2.9386 H       
@<TRIPOS>BOND
   1    1    2 ar
   2    1    6 ar
   3    1   28 1
   4    2    3 ar
   5    2   29 1
   6    3    4 ar
   7    3   30 1
   8    4    5 ar
   9    5    6 ar
  10    5    7 1
  11    6   31 1
  12    7    8 am
  13    7    9 2
  14    8   10 1
  15    8   32 1
  16   10   11 ar
  17   10   15 ar
  18   11   12 ar
  19   11   33 1
  20   12   13 ar
  21   12   34 1
  22   13   14 ar
  23   13   16 1
  24   14   15 ar
  25   14   35 1
  26   15   36 1
  27   16   17 2
  28   16   18 2
  29   16   19 am
  30   19   20 1
  31   19   37 1
  32   20   21 ar
  33   20   25 ar
  34   21   22 ar
  35   21   27 1
  36   22   23 ar
  37   22   38 1
  38   23   24 ar
  39   23   39 1
  40   24   25 ar
  41   24   40 1
  42   25   26 1
  43   26   41 1
  44   26   42 1
  45   26   43 1
  46   27   44 1
  47   27   45 1
  48   27   46 1

#	End of record

