#	Name: ASD00311027
#	Creating user name:	WinNT
#	Creation time:	15. 06. 2019 18:34

#	Modifying user name:	WinNT
#	Modification time:	15. 06. 2019 18:34

#	Program:	/corina/corina34_cracker 3.40 0067  02.08.2006

@<TRIPOS>MOLECULE
ASD00311027
  34   36    0    0    0
SMALL
NO_CHARGES


@<TRIPOS>ATOM
   1 C1            -0.0168     1.3862     0.0097 C.ar    
   2 C2             0.0021    -0.0041     0.0020 C.ar    
   3 C3             1.2133    -0.6867    -0.0127 C.ar    
   4 C4             2.3994     0.0120    -0.0198 C.ar    
   5 C5             2.3849     1.4101    -0.0126 C.ar    
   6 C6             1.1648     2.0926     0.0022 C.ar    
   7 C7             3.6369     3.6295    -0.0122 C.2     
   8 C8             3.6544     2.1634    -0.0197 C.2     
   9 C9             5.9973     6.4934    -0.0179 C.ar    
  10 C10            4.7786     5.7907    -0.0110 C.ar    
  11 C11            4.7962     4.3175    -0.0186 C.2     
  12 C12            5.9935     7.8564    -0.0106 C.ar    
  13 C13            4.7510     8.5210     0.0039 C.ar    
  14 C14            3.5562     7.7550     0.0103 C.ar    
  15 N15            3.6181     6.4232     0.0025 N.ar    
  16 O16            4.7156     1.5676    -0.0318 O.2     
  17 C17            2.3166     8.4220     0.0248 C.ar    
  18 C18            2.2821     9.7821     0.0324 C.ar    
  19 C19            3.4572    10.5314     0.0260 C.ar    
  20 C20            4.6754     9.9220     0.0125 C.ar    
  21 O21           -1.1649    -0.6966     0.0094 O.3     
  22 H22           -0.9597     1.9127     0.0170 H       
  23 H23            1.2236    -1.7667    -0.0183 H       
  24 H24            3.3398    -0.5190    -0.0306 H       
  25 H25            1.1493     3.1725     0.0074 H       
  26 H26            2.6952     4.1582    -0.0014 H       
  27 H27            6.9332     5.9544    -0.0245 H       
  28 H28            5.7379     3.7888    -0.0294 H       
  29 H29            6.9191     8.4128    -0.0154 H       
  30 H30            1.3967     7.8563     0.0295 H       
  31 H31            1.3287    10.2894     0.0431 H       
  32 H32            3.4011    11.6099     0.0320 H       
  33 H33            5.5785    10.5144     0.0081 H       
  34 H34           -1.5115    -0.8926    -0.8718 H       
@<TRIPOS>BOND
   1    1    2 ar
   2    1    6 ar
   3    1   22 1
   4    2    3 ar
   5    2   21 1
   6    3    4 ar
   7    3   23 1
   8    4    5 ar
   9    4   24 1
  10    5    6 ar
  11    5    8 1
  12    6   25 1
  13    7    8 1
  14    7   11 2
  15    7   26 1
  16    8   16 2
  17    9   10 ar
  18    9   12 ar
  19    9   27 1
  20   10   11 1
  21   10   15 ar
  22   11   28 1
  23   12   13 ar
  24   12   29 1
  25   13   14 ar
  26   13   20 ar
  27   14   15 ar
  28   14   17 ar
  29   17   18 ar
  30   17   30 1
  31   18   19 ar
  32   18   31 1
  33   19   20 ar
  34   19   32 1
  35   20   33 1
  36   21   34 1

#	End of record

