#	Name: ASD08150576
#	Creating user name:	WinNT
#	Creation time:	15. 06. 2019 21:16

#	Modifying user name:	WinNT
#	Modification time:	15. 06. 2019 21:16

#	Program:	/corina/corina34_cracker 3.40 0067  02.08.2006

@<TRIPOS>MOLECULE
ASD08150576
  59   64    0    0    0
SMALL
NO_CHARGES


@<TRIPOS>ATOM
   1 N1            -0.0362     1.3078    -0.0084 N.am    
   2 C2             0.0126     0.0221     0.3909 C.2     
   3 C3             1.2263    -0.6946     0.3760 C.2     
   4 C4             2.3691    -0.0942    -0.0436 C.2     
   5 C5             2.3214     1.2581    -0.4648 C.ar    
   6 C6             3.4775     1.9275    -0.9096 C.ar    
   7 N7             3.4306     3.1751    -1.2976 N.ar    
   8 C8             2.2912     3.8837    -1.2955 C.ar    
   9 C9             1.0797     3.2909    -0.8645 C.ar    
  10 C10            1.0966     1.9431    -0.4376 C.ar    
  11 C11           -0.1011     4.0432    -0.8670 C.ar    
  12 C12           -0.0744     5.3414    -1.2847 C.ar    
  13 C13            1.1137     5.9270    -1.7093 C.ar    
  14 C14            2.2800     5.2217    -1.7189 C.ar    
  15 O15           -1.0067    -0.5289     0.7705 O.2     
  16 C16           -1.3461     6.1499    -1.2868 C.3     
  17 C17           -1.2561     1.9968     0.0107 C.ar    
  18 C18           -1.6388     2.7001     1.1458 C.ar    
  19 C19           -2.8400     3.3792     1.1646 C.ar    
  20 C20           -3.6667     3.3594     0.0480 C.ar    
  21 C21           -3.2839     2.6561    -1.0869 C.ar    
  22 C22           -2.0798     1.9812    -1.1073 C.ar    
  23 N23           -4.8838     4.0469     0.0671 N.3     
  24 C24           -4.6688     5.4948     0.1972 C.3     
  25 C25           -5.7538     3.5479     1.1412 C.3     
  26 C26           -7.1024     4.2688     1.0782 C.3     
  27 N27           -6.8874     5.7168     1.2083 N.3     
  28 C28           -6.0174     6.2158     0.1342 C.3     
  29 C29           -1.2500     7.3133    -0.2790 C.3     
  30 N30           -1.3902     8.5079    -1.1281 N.pl3   
  31 N31           -1.5468     8.0996    -2.4512 N.2     
  32 C32           -1.5338     6.8410    -2.6186 C.2     
  33 C33           -4.1803     2.6345    -2.2981 C.3     
  34 F34           -3.6379     1.7808    -3.2646 F       
  35 F35           -5.4499     2.1758    -1.9305 F       
  36 F36           -4.2855     3.9268    -2.8235 F       
  37 H37            1.2471    -1.7247     0.7000 H       
  38 H38            3.3014    -0.6392    -0.0560 H       
  39 H39            4.4202     1.4009    -0.9303 H       
  40 H40           -1.0290     3.5975    -0.5399 H       
  41 H41            1.1120     6.9562    -2.0366 H       
  42 H42            3.1938     5.6917    -2.0512 H       
  43 H43           -2.2023     5.5153    -1.0583 H       
  44 H44           -0.9963     2.7152     2.0138 H       
  45 H45           -3.1376     3.9257     2.0473 H       
  46 H46           -1.7800     1.4381    -1.9913 H       
  47 H47           -4.1875     5.7066     1.1520 H       
  48 H48           -4.0322     5.8425    -0.6164 H       
  49 H49           -5.9081     2.4762     1.0158 H       
  50 H50           -5.2848     3.7376     2.1067 H       
  51 H51           -7.5837     4.0570     0.1234 H       
  52 H52           -7.7390     3.9211     1.8917 H       
  53 H53           -7.7658     6.2130     1.2220 H       
  54 H54           -5.8630     7.2875     0.2595 H       
  55 H55           -6.4864     6.0261    -0.8313 H       
  56 H56           -2.0607     7.2606     0.4477 H       
  57 H57           -0.2820     7.3090     0.2221 H       
  58 H58           -1.3763     9.4269    -0.8179 H       
  59 H59           -1.6404     6.3396    -3.5692 H       
@<TRIPOS>BOND
   1    1    2 am
   2    1   10 1
   3    1   17 1
   4    2    3 1
   5    2   15 2
   6    3    4 2
   7    3   37 1
   8    4    5 1
   9    4   38 1
  10    5    6 ar
  11    5   10 ar
  12    6    7 ar
  13    6   39 1
  14    7    8 ar
  15    8    9 ar
  16    8   14 ar
  17    9   10 ar
  18    9   11 ar
  19   11   12 ar
  20   11   40 1
  21   12   13 ar
  22   12   16 1
  23   13   14 ar
  24   13   41 1
  25   14   42 1
  26   16   29 1
  27   16   32 1
  28   16   43 1
  29   17   18 ar
  30   17   22 ar
  31   18   19 ar
  32   18   44 1
  33   19   20 ar
  34   19   45 1
  35   20   21 ar
  36   20   23 1
  37   21   22 ar
  38   21   33 1
  39   22   46 1
  40   23   24 1
  41   23   25 1
  42   24   28 1
  43   24   47 1
  44   24   48 1
  45   25   26 1
  46   25   49 1
  47   25   50 1
  48   26   27 1
  49   26   51 1
  50   26   52 1
  51   27   28 1
  52   27   53 1
  53   28   54 1
  54   28   55 1
  55   29   30 1
  56   29   56 1
  57   29   57 1
  58   30   31 1
  59   30   58 1
  60   31   32 2
  61   32   59 1
  62   33   34 1
  63   33   35 1
  64   33   36 1

#	End of record

