#	Name: ASD02030568
#	Creating user name:	WinNT
#	Creation time:	15. 06. 2019 20:15

#	Modifying user name:	WinNT
#	Modification time:	15. 06. 2019 20:15

#	Program:	/corina/corina34_cracker 3.40 0067  02.08.2006

@<TRIPOS>MOLECULE
ASD02030568
  55   58    0    0    0
SMALL
NO_CHARGES


@<TRIPOS>ATOM
   1 C1            -1.5535     1.3756    -0.3538 C.ar    
   2 C2            -1.7105    -0.0194    -0.4193 C.ar    
   3 C3            -0.6293    -0.8275    -0.2458 C.ar    
   4 C4             0.6348    -0.2928    -0.0036 C.ar    
   5 C5             0.8246     1.0530     0.0669 C.ar    
   6 C6            -0.2682     1.9194    -0.1076 C.ar    
   7 C7            -0.1112     3.3144    -0.0423 C.ar    
   8 C8            -1.1923     4.1226    -0.2158 C.ar    
   9 C9            -2.4565     3.5878    -0.4578 C.ar    
  10 C10           -2.6453     2.2422    -0.5335 C.ar    
  11 S11           -0.9911     5.8711    -0.1326 S.o2    
  12 O12           -2.2635     6.4058     0.2055 O.2     
  13 O13            0.1796     6.1040     0.6384 O.2     
  14 N14           -0.6543     6.3993    -1.6655 N.am    
  15 C15            0.9927     7.8943    -2.6688 C.3     
  16 C16            0.7334     6.4796    -2.1416 C.3     
  17 C17           -1.7377     6.7907    -2.5774 C.3     
  18 C18           -1.4559     8.2026    -3.1007 C.3     
  19 C19           -0.0610     8.2403    -3.7291 C.3     
  20 N20            0.2034     9.5837    -4.2617 N.3     
  21 C21           -0.7613     9.9325    -5.3124 C.3     
  22 C22           -0.5482    11.3863    -5.7402 C.3     
  23 C23            0.8826    11.5562    -6.2582 C.3     
  24 C24            1.8669    11.1404    -5.1615 C.3     
  25 C25            1.5837     9.6937    -4.7504 C.3     
  26 C26            0.0050     7.2345    -4.8494 C.2     
  27 N27            1.1989     6.8647    -5.3536 N.am    
  28 O28           -1.0163     6.7578    -5.2973 O.2     
  29 H29           -2.6841    -0.4480    -0.6059 H       
  30 H30           -0.7527    -1.8993    -0.2962 H       
  31 H31            1.4763    -0.9563     0.1305 H       
  32 H32            1.8097     1.4531     0.2560 H       
  33 H33            0.8623     3.7429     0.1449 H       
  34 H34           -3.2980     4.2514    -0.5916 H       
  35 H35           -3.6300     1.8421    -0.7255 H       
  36 H36            0.9274     8.6067    -1.8464 H       
  37 H37            1.9871     7.9406    -3.1128 H       
  38 H38            1.4151     6.2658    -1.3183 H       
  39 H39            0.8872     5.7570    -2.9430 H       
  40 H40           -1.7814     6.0930    -3.4137 H       
  41 H41           -2.6871     6.7822    -2.0418 H       
  42 H42           -2.2004     8.4677    -3.8514 H       
  43 H43           -1.5023     8.9126    -2.2750 H       
  44 H44           -0.6166     9.2764    -6.1707 H       
  45 H45           -1.7747     9.8114    -4.9297 H       
  46 H46           -1.2541    11.6401    -6.5310 H       
  47 H47           -0.7063    12.0441    -4.8856 H       
  48 H48            1.0291    10.9276    -7.1366 H       
  49 H49            1.0525    12.5997    -6.5236 H       
  50 H50            2.8865    11.2186    -5.5388 H       
  51 H51            1.7468    11.7943    -4.2977 H       
  52 H52            2.2736     9.3992    -3.9596 H       
  53 H53            1.7175     9.0388    -5.6113 H       
  54 H54            2.0106     7.2972    -5.0453 H       
  55 H55            1.2466     6.1661    -6.0249 H       
@<TRIPOS>BOND
   1    1    2 ar
   2    1    6 ar
   3    1   10 ar
   4    2    3 ar
   5    2   29 1
   6    3    4 ar
   7    3   30 1
   8    4    5 ar
   9    4   31 1
  10    5    6 ar
  11    5   32 1
  12    6    7 ar
  13    7    8 ar
  14    7   33 1
  15    8    9 ar
  16    8   11 1
  17    9   10 ar
  18    9   34 1
  19   10   35 1
  20   11   12 2
  21   11   13 2
  22   11   14 am
  23   14   17 1
  24   14   16 1
  25   15   16 1
  26   15   19 1
  27   15   36 1
  28   15   37 1
  29   16   38 1
  30   16   39 1
  31   17   18 1
  32   17   40 1
  33   17   41 1
  34   18   19 1
  35   18   42 1
  36   18   43 1
  37   19   20 1
  38   19   26 1
  39   20   21 1
  40   20   25 1
  41   21   22 1
  42   21   44 1
  43   21   45 1
  44   22   23 1
  45   22   46 1
  46   22   47 1
  47   23   24 1
  48   23   48 1
  49   23   49 1
  50   24   25 1
  51   24   50 1
  52   24   51 1
  53   25   52 1
  54   25   53 1
  55   26   27 am
  56   26   28 2
  57   27   54 1
  58   27   55 1

#	End of record

