#	Name: ASD01901299
#	Creating user name:	WinNT
#	Creation time:	15. 06. 2019 19:53

#	Modifying user name:	WinNT
#	Modification time:	15. 06. 2019 19:53

#	Program:	/corina/corina34_cracker 3.40 0067  02.08.2006

@<TRIPOS>MOLECULE
ASD01901299
  40   44    0    0    0
SMALL
NO_CHARGES


@<TRIPOS>ATOM
   1 C1            -0.0134     1.4232    -0.1639 C.ar    
   2 C2             0.2404     0.3056     0.6541 C.ar    
   3 C3             1.4663    -0.3742     0.5489 C.ar    
   4 C4             2.4177     0.0661    -0.3656 C.ar    
   5 C5             2.1599     1.1618    -1.1625 C.ar    
   6 C6             0.9568     1.8405    -1.0686 C.ar    
   7 C7            -1.3014     2.1423    -0.0663 C.ar    
   8 C8            -3.6220     3.5389     0.1247 C.ar    
   9 C9            -3.6037     2.1343    -0.0684 C.ar    
  10 N10           -2.4409     1.4790    -0.1579 N.ar    
  11 C11           -1.3209     3.5905     0.1381 C.ar    
  12 N12           -2.4765     4.2232     0.2244 N.ar    
  13 C13           -6.0166     3.4967     0.1134 C.ar    
  14 C14           -5.9987     2.1173    -0.0814 C.ar    
  15 C15           -4.8220     1.4386    -0.1696 C.ar    
  16 C16           -4.8580     4.2038     0.2158 C.ar    
  17 C17           -0.0505     4.3435     0.2482 C.ar    
  18 C18            0.9956     3.8409     1.0216 C.ar    
  19 C19            0.1055     5.5549    -0.4260 C.ar    
  20 C20            1.2924     6.2528    -0.3203 C.ar    
  21 C21            2.3281     5.7499     0.4553 C.ar    
  22 C22            2.1780     4.5449     1.1215 C.ar    
  23 F23            3.4879     6.4354     0.5564 F       
  24 F24            1.4459     7.4259    -0.9726 F       
  25 N25            1.4354    -1.4096     1.4570 N.pl3   
  26 C26            0.2428    -1.4056     2.1251 C.2     
  27 C27           -0.5241    -0.3928     1.6854 C.2     
  28 H28            3.3616    -0.4517    -0.4515 H       
  29 H29            2.9062     1.4951    -1.8684 H       
  30 H30            0.7711     2.6966    -1.7002 H       
  31 H31           -6.9630     4.0127     0.1801 H       
  32 H32           -6.9313     1.5783    -0.1592 H       
  33 H33           -4.8239     0.3688    -0.3172 H       
  34 H34           -4.8877     5.2727     0.3671 H       
  35 H35            0.8802     2.9016     1.5421 H       
  36 H36           -0.7002     5.9459    -1.0297 H       
  37 H37            2.9879     4.1558     1.7207 H       
  38 H38            2.1527    -2.0465     1.6008 H       
  39 H39           -0.0413    -2.1114     2.8917 H       
  40 H40           -1.5169    -0.1426     2.0291 H       
@<TRIPOS>BOND
   1    1    2 ar
   2    1    6 ar
   3    1    7 1
   4    2   27 1
   5    2    3 ar
   6    3    4 ar
   7    3   25 1
   8    4    5 ar
   9    4   28 1
  10    5    6 ar
  11    5   29 1
  12    6   30 1
  13    7   11 ar
  14    7   10 ar
  15    8   12 ar
  16    8    9 ar
  17    8   16 ar
  18    9   10 ar
  19    9   15 ar
  20   11   12 ar
  21   11   17 1
  22   13   14 ar
  23   13   16 ar
  24   13   31 1
  25   14   15 ar
  26   14   32 1
  27   15   33 1
  28   16   34 1
  29   17   19 ar
  30   17   18 ar
  31   18   22 ar
  32   18   35 1
  33   19   20 ar
  34   19   36 1
  35   20   21 ar
  36   20   24 1
  37   21   22 ar
  38   21   23 1
  39   22   37 1
  40   25   26 1
  41   25   38 1
  42   26   27 2
  43   26   39 1
  44   27   40 1

#	End of record

