#	Name: ASD02210008
#	Creating user name:	WinNT
#	Creation time:	15. 06. 2019 20:20

#	Modifying user name:	WinNT
#	Modification time:	15. 06. 2019 20:20

#	Program:	/corina/corina34_cracker 3.40 0067  02.08.2006

@<TRIPOS>MOLECULE
ASD02210008
  15   14    0    0    0
SMALL
NO_CHARGES


@<TRIPOS>ATOM
   1 C1            -0.0184     1.5028     0.0103 C.2     
   2 N2             1.3935    -0.4748    -0.0138 N.3     
   3 C3             0.0021    -0.0041     0.0020 C.3     
   4 C4            -0.7002    -0.5305     1.2552 C.3     
   5 C5            -0.7886    -2.0334     1.1876 C.2     
   6 O6            -0.3362    -2.6230     0.2349 O.2     
   7 O7            -1.3698    -2.7171     2.1859 O.3     
   8 O8             1.0291     2.1267     0.0037 O.co2   
   9 O9            -1.0824     2.0980     0.0186 O.co2   
  10 H10            1.8605    -0.1944    -0.8631 H       
  11 H11            1.8948    -0.1489     0.7990 H       
  12 H12           -0.5153    -0.3696    -0.8850 H       
  13 H13           -0.1328    -0.2393     2.1391 H       
  14 H14           -1.7041    -0.1098     1.3130 H       
  15 H15           -1.4028    -3.6796     2.0978 H       
@<TRIPOS>BOND
   1    1    3 1
   2    1    8 ar
   3    1    9 ar
   4    2    3 1
   5    2   10 1
   6    2   11 1
   7    3    4 1
   8    3   12 1
   9    4    5 1
  10    4   13 1
  11    4   14 1
  12    5    6 2
  13    5    7 1
  14    7   15 1

#	End of record

