#	Name: ASD01001253
#	Creating user name:	WinNT
#	Creation time:	15. 06. 2019 18:55

#	Modifying user name:	WinNT
#	Modification time:	15. 06. 2019 18:55

#	Program:	/corina/corina34_cracker 3.40 0067  02.08.2006

@<TRIPOS>MOLECULE
ASD01001253
  44   47    0    0    0
SMALL
NO_CHARGES


@<TRIPOS>ATOM
   1 C1            -0.0167     1.3784     0.0096 C.ar    
   2 C2             0.0021    -0.0041     0.0020 C.ar    
   3 C3             1.2067    -0.6818    -0.0126 C.ar    
   4 C4             2.4070     0.0332    -0.0202 C.ar    
   5 C5             2.3811     1.4282    -0.0130 C.ar    
   6 C6             1.1704     2.0935     0.0021 C.ar    
   7 C7             3.6986    -0.6849    -0.0354 C.2     
   8 C8             4.5989    -0.8210    -1.2349 C.3     
   9 N9             5.7691    -1.6037    -0.8147 N.am    
  10 C10            5.5523    -1.9170     0.6043 C.3     
  11 C11            4.2379    -1.2981     1.0021 C.2     
  12 C12            6.8236    -1.9609    -1.5742 C.2     
  13 O13            7.7252    -2.6130    -1.0918 O.2     
  14 C14            6.8824    -1.5501    -3.0230 C.3     
  15 C15            5.4953    -3.4322     0.7930 C.3     
  16 C16            5.4693    -3.7293     2.2971 C.3     
  17 C17            6.8369    -3.3815     2.8812 C.3     
  18 C18            7.2491    -1.9903     2.4773 C.ar    
  19 C19            6.6628    -1.3188     1.4282 C.ar    
  20 C20            8.2629    -1.3790     3.2041 C.ar    
  21 C21            8.6887    -0.1076     2.8805 C.ar    
  22 C22            8.1029     0.5648     1.8239 C.ar    
  23 C23            7.0945    -0.0396     1.1022 C.ar    
  24 F24            1.1436     3.4443     0.0087 F       
  25 F25            1.2234    -2.0327    -0.0192 F       
  26 H26           -0.9605     1.9032     0.0169 H       
  27 H27           -0.9265    -0.5556     0.0079 H       
  28 H28            3.3055     1.9867    -0.0184 H       
  29 H29            4.0734    -1.3408    -2.0359 H       
  30 H30            4.9151     0.1652    -1.5749 H       
  31 H31            3.7994    -1.3525     1.9876 H       
  32 H32            5.9913    -0.9747    -3.2739 H       
  33 H33            7.7690    -0.9388    -3.1916 H       
  34 H34            6.9295    -2.4395    -3.6512 H       
  35 H35            4.5936    -3.8271     0.3248 H       
  36 H36            6.3751    -3.8919     0.3428 H       
  37 H37            4.7004    -3.1242     2.7774 H       
  38 H38            5.2592    -4.7865     2.4588 H       
  39 H39            6.7884    -3.4403     3.9686 H       
  40 H40            7.5754    -4.0952     2.5161 H       
  41 H41            8.7211    -1.9033     4.0296 H       
  42 H42            9.4769     0.3613     3.4508 H       
  43 H43            8.4334     1.5597     1.5646 H       
  44 H44            6.6375     0.4859     0.2767 H       
@<TRIPOS>BOND
   1    1    2 ar
   2    1    6 ar
   3    1   26 1
   4    2    3 ar
   5    2   27 1
   6    3    4 ar
   7    3   25 1
   8    4    5 ar
   9    4    7 1
  10    5    6 ar
  11    5   28 1
  12    6   24 1
  13    7    8 1
  14    7   11 2
  15    8    9 1
  16    8   29 1
  17    8   30 1
  18    9   10 1
  19    9   12 am
  20   10   11 1
  21   10   15 1
  22   10   19 1
  23   11   31 1
  24   12   13 2
  25   12   14 1
  26   14   32 1
  27   14   33 1
  28   14   34 1
  29   15   16 1
  30   15   35 1
  31   15   36 1
  32   16   17 1
  33   16   37 1
  34   16   38 1
  35   17   18 1
  36   17   39 1
  37   17   40 1
  38   18   19 ar
  39   18   20 ar
  40   19   23 ar
  41   20   21 ar
  42   20   41 1
  43   21   22 ar
  44   21   42 1
  45   22   23 ar
  46   22   43 1
  47   23   44 1

#	End of record

