#	Name: ASD03730299
#	Creating user name:	WinNT
#	Creation time:	15. 06. 2019 20:44

#	Modifying user name:	WinNT
#	Modification time:	15. 06. 2019 20:44

#	Program:	/corina/corina34_cracker 3.40 0067  02.08.2006

@<TRIPOS>MOLECULE
ASD03730299
  73   78    0    0    0
SMALL
NO_CHARGES


@<TRIPOS>ATOM
   1 O1            -0.4715     1.1407     1.3392 O.3     
   2 C2            -0.4031    -0.2955     1.4144 C.3     
   3 O3             0.6739    -0.6341     0.5210 O.3     
   4 C4             1.4948     0.4571     0.5082 C.ar    
   5 C5             0.7890     1.5488     1.0088 C.ar    
   6 C6             2.8094     0.6092     0.1055 C.ar    
   7 C7             3.4343     1.8495     0.1921 C.ar    
   8 C8             2.7153     2.9357     0.6820 C.ar    
   9 C9             1.4069     2.7853     1.0918 C.ar    
  10 O10            4.7109     2.2066    -0.1288 O.3     
  11 C11            3.6382     4.1233     0.6218 C.3     
  12 C12            4.7791     3.6373    -0.2827 C.3     
  13 N13            3.0706     6.3045     0.9988 N.am    
  14 C14            2.9617     5.3415     0.0619 C.2     
  15 C15            4.1339     4.5318     1.9769 C.ar    
  16 C16            4.8304     3.8746     2.9819 C.ar    
  17 C17            5.1514     4.5504     4.1589 C.ar    
  18 C18            4.7733     5.8692     4.3156 C.ar    
  19 C19            4.0811     6.5219     3.3159 C.ar    
  20 C20            3.7537     5.8599     2.1338 C.ar    
  21 O21            2.4232     5.4396    -1.0205 O.2     
  22 C22            2.5350     7.6594     0.8451 C.3     
  23 C23            1.1008     7.7042     1.3760 C.3     
  24 C24            0.5415     9.1192     1.2154 C.3     
  25 C25           -0.8927     9.1640     1.7464 C.3     
  26 C26           -1.4520    10.5791     1.5858 C.3     
  27 C27            5.2318     2.4573     2.8046 C.ar    
  28 C28            6.1297     2.1066     1.7974 C.ar    
  29 C29            6.5011     0.7869     1.6351 C.ar    
  30 C30            5.9797    -0.1909     2.4751 C.ar    
  31 C31            5.0859     0.1568     3.4773 C.ar    
  32 C32            4.7165     1.4753     3.6480 C.ar    
  33 O33            6.3462    -1.4898     2.3135 O.3     
  34 C34            5.7724    -2.4423     3.2111 C.3     
  35 C35            6.2992    -3.8394     2.8773 C.3     
  36 C36            5.6849    -4.8591     3.8384 C.3     
  37 C37            6.2117    -6.2563     3.5046 C.3     
  38 C38            5.5974    -7.2760     4.4657 C.3     
  39 F39            7.3711     0.4453     0.6596 F       
  40 H40           -0.1725    -0.6152     2.4307 H       
  41 H41           -1.3376    -0.7418     1.0743 H       
  42 H42            3.3545    -0.2405    -0.2782 H       
  43 H43            0.8628     3.6344     1.4784 H       
  44 H44            5.7388     4.0189     0.0658 H       
  45 H45            4.6005     3.9242    -1.3190 H       
  46 H46            5.6929     4.0444     4.9444 H       
  47 H47            5.0206     6.3933     5.2269 H       
  48 H48            3.7908     7.5534     3.4506 H       
  49 H49            3.1525     8.3601     1.4070 H       
  50 H50            2.5408     7.9349    -0.2096 H       
  51 H51            0.4833     7.0035     0.8141 H       
  52 H52            1.0950     7.4288     2.4306 H       
  53 H53            1.1590     9.8200     1.7774 H       
  54 H54            0.5473     9.3947     0.1608 H       
  55 H55           -1.5102     8.4633     1.1845 H       
  56 H56           -0.8985     8.8886     2.8010 H       
  57 H57           -0.8345    11.2798     2.1477 H       
  58 H58           -1.4462    10.8545     0.5312 H       
  59 H59           -2.4738    10.6110     1.9641 H       
  60 H60            6.5339     2.8663     1.1448 H       
  61 H61            4.6822    -0.6049     4.1280 H       
  62 H62            4.0245     1.7453     4.4320 H       
  63 H63            6.0446    -2.1863     4.2351 H       
  64 H64            4.6872    -2.4293     3.1096 H       
  65 H65            6.0270    -4.0953     1.8534 H       
  66 H66            7.3844    -3.8523     2.9789 H       
  67 H67            5.9571    -4.6032     4.8624 H       
  68 H68            4.5997    -4.8462     3.7369 H       
  69 H69            5.9395    -6.5122     2.4807 H       
  70 H70            7.2969    -6.2692     3.6062 H       
  71 H71            5.8696    -7.0201     5.4897 H       
  72 H72            4.5122    -7.2631     4.3642 H       
  73 H73            5.9727    -8.2713     4.2279 H       
@<TRIPOS>BOND
   1    1    2 1
   2    1    5 1
   3    2    3 1
   4    2   40 1
   5    2   41 1
   6    3    4 1
   7    4    5 ar
   8    4    6 ar
   9    5    9 ar
  10    6    7 ar
  11    6   42 1
  12    7    8 ar
  13    7   10 1
  14    8    9 ar
  15    8   11 1
  16    9   43 1
  17   10   12 1
  18   11   12 1
  19   11   14 1
  20   11   15 1
  21   12   44 1
  22   12   45 1
  23   13   14 am
  24   13   20 1
  25   13   22 1
  26   14   21 2
  27   15   16 ar
  28   15   20 ar
  29   16   17 ar
  30   16   27 1
  31   17   18 ar
  32   17   46 1
  33   18   19 ar
  34   18   47 1
  35   19   20 ar
  36   19   48 1
  37   22   23 1
  38   22   49 1
  39   22   50 1
  40   23   24 1
  41   23   51 1
  42   23   52 1
  43   24   25 1
  44   24   53 1
  45   24   54 1
  46   25   26 1
  47   25   55 1
  48   25   56 1
  49   26   57 1
  50   26   58 1
  51   26   59 1
  52   27   28 ar
  53   27   32 ar
  54   28   29 ar
  55   28   60 1
  56   29   30 ar
  57   29   39 1
  58   30   31 ar
  59   30   33 1
  60   31   32 ar
  61   31   61 1
  62   32   62 1
  63   33   34 1
  64   34   35 1
  65   34   63 1
  66   34   64 1
  67   35   36 1
  68   35   65 1
  69   35   66 1
  70   36   37 1
  71   36   67 1
  72   36   68 1
  73   37   38 1
  74   37   69 1
  75   37   70 1
  76   38   71 1
  77   38   72 1
  78   38   73 1

#	End of record

