#	Name: ASD01813000
#	Creating user name:	WinNT
#	Creation time:	15. 06. 2019 19:29

#	Modifying user name:	WinNT
#	Modification time:	15. 06. 2019 19:29

#	Program:	/corina/corina34_cracker 3.40 0067  02.08.2006

@<TRIPOS>MOLECULE
ASD01813000
  54   58    0    0    0
SMALL
NO_CHARGES


@<TRIPOS>ATOM
   1 N1             0.0054     1.3209    -0.2542 N.ar    
   2 C2             0.0360     0.0094    -0.3894 C.ar    
   3 C3             1.2382    -0.6807    -0.4026 C.ar    
   4 C4             2.4141     0.0227    -0.2723 C.ar    
   5 C5             2.3628     1.4143    -0.1302 C.ar    
   6 C6             1.1086     2.0407    -0.1257 C.ar    
   7 C7             3.8706    -0.3563    -0.2413 C.3     
   8 N8             4.6158     0.8978    -0.0750 N.am    
   9 C9             3.7396     1.9161    -0.0116 C.2     
  10 C10            6.0734     1.0197     0.0088 C.3     
  11 C11            6.6421     1.2077    -1.3740 C.ar    
  12 O12            1.0258     3.3856     0.0100 O.3     
  13 O13            4.0429     3.0857     0.1242 O.2     
  14 C14            6.7959     2.4825    -1.8884 C.ar    
  15 C15            7.3163     2.6605    -3.1542 C.ar    
  16 C16            7.6873     1.5530    -3.9142 C.ar    
  17 C17            7.5306     0.2711    -3.3909 C.ar    
  18 C18            7.0136     0.1050    -2.1220 C.ar    
  19 C19           -0.2019     3.9616    -0.0802 C.ar    
  20 C20           -1.0071     4.0610     1.0455 C.ar    
  21 C21           -0.6494     4.4561    -1.2966 C.ar    
  22 C22           -1.8977     5.0412    -1.3862 C.ar    
  23 C23           -2.7012     5.1346    -0.2638 C.ar    
  24 C24           -2.2544     4.6466     0.9517 C.ar    
  25 C25           -0.5212     3.5297     2.3694 C.3     
  26 C26            8.2468     1.7380    -5.2759 C.ar    
  27 C27            8.4127     3.0133    -5.8215 C.ar    
  28 N28            8.9126     3.1442    -7.0342 N.ar    
  29 N29            9.2586     2.1345    -7.7458 N.ar    
  30 C30            9.1402     0.8913    -7.3177 C.ar    
  31 C31            8.6320     0.6405    -6.0557 C.ar    
  32 C32            9.5640    -0.2538    -8.2010 C.3     
  33 Cl33          -4.2689     5.8713    -0.3788 Cl      
  34 H34           -0.8907    -0.5359    -0.4911 H       
  35 H35            1.2519    -1.7550    -0.5131 H       
  36 H36            4.0666    -1.0230     0.5985 H       
  37 H37            4.1524    -0.8385    -1.1773 H       
  38 H38            6.3311     1.8792     0.6276 H       
  39 H39            6.4887     0.1149     0.4526 H       
  40 H40            6.5080     3.3401    -1.2985 H       
  41 H41            7.4353     3.6562    -3.5551 H       
  42 H42            7.8166    -0.5907    -3.9756 H       
  43 H43            6.8952    -0.8879    -1.7139 H       
  44 H44           -0.0222     4.3840    -2.1729 H       
  45 H45           -2.2465     5.4263    -2.3331 H       
  46 H46           -2.8816     4.7238     1.8276 H       
  47 H47            0.0101     4.3172     2.9039 H       
  48 H48           -1.3733     3.1988     2.9630 H       
  49 H49            0.1513     2.6890     2.1988 H       
  50 H50            8.1324     3.8876    -5.2527 H       
  51 H51            8.5319    -0.3691    -5.6854 H       
  52 H52           10.6137    -0.4841    -8.0188 H       
  53 H53            8.9556    -1.1300    -7.9768 H       
  54 H54            9.4291     0.0244    -9.2462 H       
@<TRIPOS>BOND
   1    1    2 ar
   2    1    6 ar
   3    2    3 ar
   4    2   34 1
   5    3    4 ar
   6    3   35 1
   7    4    7 1
   8    4    5 ar
   9    5    6 ar
  10    5    9 1
  11    6   12 1
  12    7    8 1
  13    7   36 1
  14    7   37 1
  15    8    9 am
  16    8   10 1
  17    9   13 2
  18   10   11 1
  19   10   38 1
  20   10   39 1
  21   11   14 ar
  22   11   18 ar
  23   12   19 1
  24   14   15 ar
  25   14   40 1
  26   15   16 ar
  27   15   41 1
  28   16   17 ar
  29   16   26 1
  30   17   18 ar
  31   17   42 1
  32   18   43 1
  33   19   21 ar
  34   19   20 ar
  35   20   24 ar
  36   20   25 1
  37   21   22 ar
  38   21   44 1
  39   22   23 ar
  40   22   45 1
  41   23   24 ar
  42   23   33 1
  43   24   46 1
  44   25   47 1
  45   25   48 1
  46   25   49 1
  47   26   27 ar
  48   26   31 ar
  49   27   28 ar
  50   27   50 1
  51   28   29 ar
  52   29   30 ar
  53   30   31 ar
  54   30   32 1
  55   31   51 1
  56   32   52 1
  57   32   53 1
  58   32   54 1

#	End of record

