#	Name: ASD04910314
#	Creating user name:	WinNT
#	Creation time:	15. 06. 2019 20:55

#	Modifying user name:	WinNT
#	Modification time:	15. 06. 2019 20:55

#	Program:	/corina/corina34_cracker 3.40 0067  02.08.2006

@<TRIPOS>MOLECULE
ASD04910314
  57   59    0    0    0
SMALL
NO_CHARGES


@<TRIPOS>ATOM
   1 C1             0.1209     1.2158    -0.2922 C.ar    
   2 C2             0.3248    -0.1523    -0.3284 C.ar    
   3 C3            -0.7300    -1.0033    -0.5861 C.ar    
   4 C4            -2.0050    -0.4815    -0.8103 C.ar    
   5 C5            -2.2039     0.8995    -0.7720 C.ar    
   6 C6            -1.1416     1.7392    -0.5080 C.ar    
   7 C7             1.2779     2.1394    -0.0106 C.3     
   8 O8             1.1202     3.3437    -0.7635 O.3     
   9 C9             2.2418     3.8783    -1.3145 C.ar    
  10 C10            1.3129     2.4723     1.4824 C.3     
  11 C11            2.5574     3.3076     1.7896 C.3     
  12 C12            2.5925     3.6404     3.2825 C.3     
  13 C13            3.4830     3.3233    -1.0373 C.ar    
  14 C14            2.1448     4.9754    -2.1584 C.ar    
  15 C15            3.2837     5.5185    -2.7186 C.ar    
  16 C16            4.5264     4.9669    -2.4371 C.ar    
  17 C17            4.6225     3.8661    -1.5963 C.ar    
  18 N18            5.6839     5.5184    -3.0061 N.pl3   
  19 N19            5.6972     6.5316    -3.7978 N.2     
  20 C20            6.9409     6.7822    -4.1416 C.2     
  21 C21            7.7191     5.8240    -3.4872 C.2     
  22 N22            6.8767     5.0828    -2.8025 N.2     
  23 C23           -3.1398    -1.3876    -1.0876 C.2     
  24 N24           -4.3698    -0.8806    -1.3037 N.am    
  25 O25           -2.9636    -2.5899    -1.1208 O.2     
  26 C26           -5.4943    -1.7785    -1.5785 C.3     
  27 C27           -6.7665    -0.9541    -1.7849 C.3     
  28 C28           -7.9233    -1.8777    -2.0676 C.2     
  29 O29           -7.7481    -3.0727    -2.1005 O.2     
  30 O30           -9.1482    -1.3728    -2.2828 O.3     
  31 C31            9.2173     5.6740    -3.5497 C.3     
  32 H32            1.3118    -0.5547    -0.1547 H       
  33 H33           -0.5694    -2.0709    -0.6148 H       
  34 H34           -3.1880     1.3095    -0.9446 H       
  35 H35           -1.2941     2.8079    -0.4780 H       
  36 H36            2.2099     1.6518    -0.2961 H       
  37 H37            0.4205     3.0382     1.7495 H       
  38 H38            1.3438     1.5484     2.0600 H       
  39 H39            3.4499     2.7417     1.5224 H       
  40 H40            2.5266     4.2315     1.2120 H       
  41 H41            2.6233     2.7166     3.8601 H       
  42 H42            3.4791     4.2355     3.5014 H       
  43 H43            1.7001     4.2063     3.5497 H       
  44 H44            3.5576     2.4666    -0.3839 H       
  45 H45            1.1781     5.4044    -2.3774 H       
  46 H46            3.2080     6.3720    -3.3761 H       
  47 H47            5.5890     3.4370    -1.3767 H       
  48 H48            7.2897     7.5676    -4.7957 H       
  49 H49           -4.5104     0.0787    -1.2772 H       
  50 H50           -5.2860    -2.3568    -2.4787 H       
  51 H51           -5.6329    -2.4557    -0.7356 H       
  52 H52           -6.9748    -0.3759    -0.8847 H       
  53 H53           -6.6279    -0.2769    -2.6277 H       
  54 H54           -9.8586    -2.0045    -2.4600 H       
  55 H55            9.6752     6.2672    -2.7582 H       
  56 H56            9.4832     4.6252    -3.4178 H       
  57 H57            9.5770     6.0210    -4.5184 H       
@<TRIPOS>BOND
   1    1    2 ar
   2    1    7 1
   3    1    6 ar
   4    2    3 ar
   5    2   32 1
   6    3    4 ar
   7    3   33 1
   8    4    5 ar
   9    4   23 1
  10    5    6 ar
  11    5   34 1
  12    6   35 1
  13    7    8 1
  14    7   10 1
  15    7   36 1
  16    8    9 1
  17    9   13 ar
  18    9   14 ar
  19   10   11 1
  20   10   37 1
  21   10   38 1
  22   11   12 1
  23   11   39 1
  24   11   40 1
  25   12   41 1
  26   12   42 1
  27   12   43 1
  28   13   17 ar
  29   13   44 1
  30   14   15 ar
  31   14   45 1
  32   15   16 ar
  33   15   46 1
  34   16   17 ar
  35   16   18 1
  36   17   47 1
  37   18   19 1
  38   18   22 1
  39   19   20 2
  40   20   21 1
  41   20   48 1
  42   21   22 2
  43   21   31 1
  44   23   24 am
  45   23   25 2
  46   24   26 1
  47   24   49 1
  48   26   27 1
  49   26   50 1
  50   26   51 1
  51   27   28 1
  52   27   52 1
  53   27   53 1
  54   28   29 2
  55   28   30 1
  56   30   54 1
  57   31   55 1
  58   31   56 1
  59   31   57 1

#	End of record

