#	Name: ASD09116240
#	Creating user name:	WinNT
#	Creation time:	15. 06. 2019 21:21

#	Modifying user name:	WinNT
#	Modification time:	15. 06. 2019 21:21

#	Program:	/corina/corina34_cracker 3.40 0067  02.08.2006

@<TRIPOS>MOLECULE
ASD09116240
  66   71    0    0    0
SMALL
NO_CHARGES


@<TRIPOS>ATOM
   1 N1            -0.0297     1.4183     0.1451 N.2     
   2 N2            -0.0209     0.0194     0.2663 N.pl3   
   3 C3             1.2224     1.8078     0.1158 C.2     
   4 N4             2.0154     0.7342     0.2116 N.2     
   5 C5             1.2800    -0.3531     0.3032 C.2     
   6 N6             1.6572     3.1283     0.0023 N.pl3   
   7 C7             3.0216     3.4264     0.0966 C.ar    
   8 C8             3.5418     4.5213    -0.5805 C.ar    
   9 C9             5.7210     4.0176     0.2828 C.ar    
  10 C10            3.8547     2.6304     0.8723 C.ar    
  11 C11           -1.1336    -0.8209     0.3355 C.ar    
  12 N12           -1.0320    -2.0869    -0.0407 N.ar    
  13 N13           -2.0276    -2.8994    -0.0057 N.ar    
  14 C14           -3.2231    -2.5141     0.4110 C.ar    
  15 C15           -3.4197    -1.2009     0.8480 C.ar    
  16 C16           -2.3530    -0.3281     0.8071 C.ar    
  17 C17           -4.3849    -3.4330     0.4014 C.ar    
  18 C18           -5.5816    -3.0014    -0.1727 C.ar    
  19 C19           -5.6444    -1.6420    -0.8136 C.3     
  20 C20           -5.7428    -0.5365     0.2340 C.3     
  21 C21           -4.7616    -0.7850     1.3765 C.3     
  22 C22           -4.2982    -4.7053     0.9557 C.ar    
  23 C23           -5.4067    -5.5298     0.9514 C.ar    
  24 C24           -6.5967    -5.0905     0.4002 C.ar    
  25 C25           -6.6846    -3.8279    -0.1602 C.ar    
  26 N26            1.7523    -1.6468     0.4169 N.pl3   
  27 C27            4.8883     4.8155    -0.4868 C.ar    
  28 O28            7.0466     4.3082     0.3744 O.3     
  29 C29            7.5132     5.4458    -0.3538 C.3     
  30 C30            5.2012     2.9258     0.9650 C.ar    
  31 C31            9.0175     5.6125    -0.1301 C.3     
  32 Cl32           6.2445     1.9274     1.9285 Cl      
  33 N33            9.7286     4.4637    -0.7068 N.3     
  34 C34           11.1842     4.6977    -0.7242 C.3     
  35 C35           11.8428     3.5399     0.0549 C.3     
  36 C36           10.7742     2.4176    -0.0174 C.3     
  37 C37            9.4591     3.2319     0.0652 C.3     
  38 H38            1.0141     3.8400    -0.1420 H       
  39 H39            2.8937     5.1428    -1.1807 H       
  40 H40            3.4501     1.7812     1.4029 H       
  41 H41           -2.4582     0.7001     1.1203 H       
  42 H42           -4.7460    -1.4879    -1.4114 H       
  43 H43           -6.5171    -1.5948    -1.4649 H       
  44 H44           -5.5147     0.4217    -0.2329 H       
  45 H45           -6.7572    -0.5085     0.6319 H       
  46 H46           -5.1531    -1.5727     2.0203 H       
  47 H47           -4.6498     0.1299     1.9584 H       
  48 H48           -3.3691    -5.0473     1.3870 H       
  49 H49           -5.3438    -6.5195     1.3791 H       
  50 H50           -7.4623    -5.7363     0.4071 H       
  51 H51           -7.6172    -3.4906    -0.5879 H       
  52 H52            2.7075    -1.8146     0.4344 H       
  53 H53            1.1286    -2.3871     0.4791 H       
  54 H54            5.2926     5.6672    -1.0136 H       
  55 H55            7.3175     5.3023    -1.4164 H       
  56 H56            6.9930     6.3383    -0.0058 H       
  57 H57            9.3571     6.5293    -0.6122 H       
  58 H58            9.2221     5.6670     0.9391 H       
  59 H59           11.5462     4.7060    -1.7524 H       
  60 H60           11.4129     5.6474    -0.2407 H       
  61 H61           12.7663     3.2246    -0.4308 H       
  62 H62           12.0293     3.8284     1.0894 H       
  63 H63           10.8397     1.8763    -0.9612 H       
  64 H64           10.8655     1.7364     0.8287 H       
  65 H65            9.2288     3.4767     1.1021 H       
  66 H66            8.6382     2.6738    -0.3851 H       
@<TRIPOS>BOND
   1    1    2 1
   2    1    3 2
   3    2   11 1
   4    2    5 1
   5    3    4 1
   6    3    6 1
   7    4    5 2
   8    5   26 1
   9    6    7 1
  10    6   38 1
  11    7    8 ar
  12    7   10 ar
  13    8   27 ar
  14    8   39 1
  15    9   30 ar
  16    9   28 1
  17    9   27 ar
  18   10   30 ar
  19   10   40 1
  20   11   12 ar
  21   11   16 ar
  22   12   13 ar
  23   13   14 ar
  24   14   15 ar
  25   14   17 1
  26   15   16 ar
  27   15   21 1
  28   16   41 1
  29   17   18 ar
  30   17   22 ar
  31   18   19 1
  32   18   25 ar
  33   19   20 1
  34   19   42 1
  35   19   43 1
  36   20   21 1
  37   20   44 1
  38   20   45 1
  39   21   46 1
  40   21   47 1
  41   22   23 ar
  42   22   48 1
  43   23   24 ar
  44   23   49 1
  45   24   25 ar
  46   24   50 1
  47   25   51 1
  48   26   52 1
  49   26   53 1
  50   27   54 1
  51   28   29 1
  52   29   31 1
  53   29   55 1
  54   29   56 1
  55   30   32 1
  56   31   33 1
  57   31   57 1
  58   31   58 1
  59   33   34 1
  60   33   37 1
  61   34   35 1
  62   34   59 1
  63   34   60 1
  64   35   36 1
  65   35   61 1
  66   35   62 1
  67   36   37 1
  68   36   63 1
  69   36   64 1
  70   37   65 1
  71   37   66 1

#	End of record

