#	Name: ASD03091295
#	Creating user name:	WinNT
#	Creation time:	15. 06. 2019 20:30

#	Modifying user name:	WinNT
#	Modification time:	15. 06. 2019 20:30

#	Program:	/corina/corina34_cracker 3.40 0067  02.08.2006

@<TRIPOS>MOLECULE
ASD03091295
  53   57    0    0    0
SMALL
NO_CHARGES


@<TRIPOS>ATOM
   1 N1             0.0206     1.1093     0.4903 N.2     
   2 C2             0.0698    -0.1051     0.0105 C.2     
   3 N3             1.2234    -0.6812    -0.4491 N.am    
   4 C4             2.3893     0.0058    -0.4227 C.2     
   5 C5             2.3575     1.3754     0.1129 C.ar    
   6 C6             3.5038     2.1631     0.1818 C.ar    
   7 C7             3.4159     3.4465     0.6951 C.ar    
   8 C8             2.1919     3.9471     1.1394 C.ar    
   9 C9             1.0600     3.1864     1.0786 C.ar    
  10 C10            1.1195     1.8870     0.5650 C.ar    
  11 O11            3.4247    -0.4909    -0.8264 O.2     
  12 C12           -1.1804    -0.8950    -0.0378 C.ar    
  13 C13           -2.3370    -0.3967     0.5608 C.ar    
  14 C14           -3.4992    -1.1475     0.5066 C.ar    
  15 C15           -3.4667    -2.3721    -0.1443 C.ar    
  16 C16           -2.2832    -2.8056    -0.7168 C.ar    
  17 N17           -1.1933    -2.0703    -0.6556 N.ar    
  18 C18           -4.7708    -0.6458     1.1411 C.3     
  19 C19            1.1960    -2.0494    -0.9720 C.3     
  20 N20            7.0292     5.5595    -0.2033 N.3     
  21 C21            7.0316     4.2824     0.5266 C.3     
  22 C22            5.7392     3.5200     0.2794 C.3     
  23 N23            4.5602     4.2446     0.7688 N.3     
  24 C24            4.3768     5.4983     0.0244 C.3     
  25 C25            5.0370     6.6544     0.7607 C.3     
  26 C26            6.5498     6.6381     0.6728 C.3     
  27 C27            6.3828     5.5559    -1.4981 C.3     
  28 C28            4.8859     5.3143    -1.3936 C.3     
  29 H29            4.4521     1.7769    -0.1615 H       
  30 H30            2.1391     4.9498     1.5372 H       
  31 H31            0.1197     3.5875     1.4271 H       
  32 H32           -2.3264     0.5611     1.0598 H       
  33 H33           -4.3562    -2.9816    -0.2036 H       
  34 H34           -2.2548    -3.7588    -1.2239 H       
  35 H35           -5.3347    -0.0629     0.4129 H       
  36 H36           -5.3711    -1.4935     1.4713 H       
  37 H37           -4.5262    -0.0181     1.9980 H       
  38 H38            0.8851    -2.0329    -2.0166 H       
  39 H39            2.1912    -2.4874    -0.8960 H       
  40 H40            0.4912    -2.6458    -0.3926 H       
  41 H41            7.8746     3.6785     0.1908 H       
  42 H42            7.1341     4.4790     1.5938 H       
  43 H43            5.6293     3.3493    -0.7915 H       
  44 H44            5.7959     2.5559     0.7847 H       
  45 H45            3.3076     5.7015    -0.0354 H       
  46 H46            4.6725     7.5910     0.3390 H       
  47 H47            4.7475     6.6108     1.8106 H       
  48 H48            6.9628     6.4956     1.6714 H       
  49 H49            6.8937     7.5949     0.2800 H       
  50 H50            6.5527     6.5184    -1.9807 H       
  51 H51            6.8254     4.7715    -2.1120 H       
  52 H52            4.6676     4.2972    -1.7192 H       
  53 H53            4.3675     6.0136    -2.0497 H       
@<TRIPOS>BOND
   1    1    2 2
   2    1   10 1
   3    2    3 1
   4    2   12 1
   5    3    4 am
   6    3   19 1
   7    4    5 1
   8    4   11 2
   9    5    6 ar
  10    5   10 ar
  11    6    7 ar
  12    6   29 1
  13    7    8 ar
  14    7   23 1
  15    8    9 ar
  16    8   30 1
  17    9   10 ar
  18    9   31 1
  19   12   13 ar
  20   12   17 ar
  21   13   14 ar
  22   13   32 1
  23   14   15 ar
  24   14   18 1
  25   15   16 ar
  26   15   33 1
  27   16   17 ar
  28   16   34 1
  29   18   35 1
  30   18   36 1
  31   18   37 1
  32   19   38 1
  33   19   39 1
  34   19   40 1
  35   20   21 1
  36   20   26 1
  37   20   27 1
  38   21   22 1
  39   21   41 1
  40   21   42 1
  41   22   23 1
  42   22   43 1
  43   22   44 1
  44   23   24 1
  45   24   25 1
  46   24   28 1
  47   24   45 1
  48   25   26 1
  49   25   46 1
  50   25   47 1
  51   26   48 1
  52   26   49 1
  53   27   28 1
  54   27   50 1
  55   27   51 1
  56   28   52 1
  57   28   53 1

#	End of record

