#	Name: ASD06350035
#	Creating user name:	WinNT
#	Creation time:	15. 06. 2019 21:06

#	Modifying user name:	WinNT
#	Modification time:	15. 06. 2019 21:06

#	Program:	/corina/corina34_cracker 3.40 0067  02.08.2006

@<TRIPOS>MOLECULE
ASD06350035
  28   29    0    0    0
SMALL
NO_CHARGES


@<TRIPOS>ATOM
   1 C1            -0.5032     1.4428     0.3611 C.3     
   2 N2            -0.3803    -0.0146     0.2760 N.pl3   
   3 C3             0.3375    -0.7057     1.2365 C.ar    
   4 N4             0.9069    -0.0333     2.2256 N.ar    
   5 C5             1.6017    -0.6606     3.1630 C.ar    
   6 C6             1.7305    -2.0352     3.1025 C.ar    
   7 C7             1.1197    -2.7152     2.0491 C.ar    
   8 N8             0.4337    -2.0240     1.1468 N.ar    
   9 O9             1.2204    -4.0628     1.9510 O.3     
  10 C10            0.5251    -4.6849     0.9610 C.ar    
  11 C11           -0.7332    -5.2056     1.2199 C.ar    
  12 C12           -1.4406    -5.8373     0.2150 C.ar    
  13 C13           -0.8914    -5.9513    -1.0551 C.ar    
  14 C14            0.3693    -5.4298    -1.3155 C.ar    
  15 C15            1.0739    -4.7930    -0.3109 C.ar    
  16 F16            2.3003    -4.2853    -0.5630 F       
  17 N17           -1.6074    -6.5916    -2.0721 N.pl3   
  18 H18            0.4885     1.8938     0.3239 H       
  19 H19           -1.0993     1.8066    -0.4757 H       
  20 H20           -0.9900     1.7123     1.2984 H       
  21 H21           -0.8021    -0.4951    -0.4534 H       
  22 H22            2.0626    -0.1039     3.9654 H       
  23 H23            2.2918    -2.5708     3.8538 H       
  24 H24           -1.1608    -5.1180     2.2078 H       
  25 H25           -2.4209    -6.2427     0.4176 H       
  26 H26            0.7973    -5.5184    -2.3031 H       
  27 H27           -2.4877    -6.9561    -1.8900 H       
  28 H28           -1.2236    -6.6712    -2.9593 H       
@<TRIPOS>BOND
   1    1    2 1
   2    1   18 1
   3    1   19 1
   4    1   20 1
   5    2    3 1
   6    2   21 1
   7    3    4 ar
   8    3    8 ar
   9    4    5 ar
  10    5    6 ar
  11    5   22 1
  12    6    7 ar
  13    6   23 1
  14    7    8 ar
  15    7    9 1
  16    9   10 1
  17   10   11 ar
  18   10   15 ar
  19   11   12 ar
  20   11   24 1
  21   12   13 ar
  22   12   25 1
  23   13   14 ar
  24   13   17 1
  25   14   15 ar
  26   14   26 1
  27   15   16 1
  28   17   27 1
  29   17   28 1

#	End of record

