#	Name: ASD05310010
#	Creating user name:	WinNT
#	Creation time:	15. 06. 2019 20:58

#	Modifying user name:	WinNT
#	Modification time:	15. 06. 2019 20:58

#	Program:	/corina/corina34_cracker 3.40 0067  02.08.2006

@<TRIPOS>MOLECULE
ASD05310010
  32   33    0    0    0
SMALL
NO_CHARGES


@<TRIPOS>ATOM
   1 O1            -0.0174     1.4332     0.0099 O.3     
   2 O2             0.8301     4.1958     0.4107 O.3     
   3 O3            -0.5842     0.7299    -2.5069 O.2     
   4 O4            -4.1956    -1.8275    -2.8636 O.2     
   5 N5            -1.1397    -0.5136    -0.7615 N.am    
   6 N6             3.4776     0.7836    -0.6986 N.2     
   7 N7            -2.3931    -0.5259    -2.7395 N.am    
   8 N8             4.1227     0.0981    -1.3128 N.1     
   9 N9             4.7679    -0.5874    -1.9270 N.pl3   
  10 C10            2.0444     0.8904    -0.9828 C.3     
  11 C11            0.0021    -0.0041     0.0020 C.3     
  12 C12            1.3184    -0.4407    -0.6698 C.3     
  13 C13            1.3576     1.8735    -0.0008 C.3     
  14 C14            1.4593     3.3100    -0.5175 C.3     
  15 C15           -1.9866    -1.4230    -0.1887 C.2     
  16 C16           -1.3489    -0.0787    -2.0174 C.2     
  17 C17           -3.0421    -1.8882    -0.8905 C.2     
  18 C18           -3.2506    -1.4224    -2.2110 C.2     
  19 C19           -3.9853    -2.8904    -0.2765 C.3     
  20 H20            1.8760     1.1914    -2.0168 H       
  21 H21           -0.0379    -0.3809     1.0240 H       
  22 H22            1.1139    -0.9891    -1.5893 H       
  23 H23            1.9124    -1.0477     0.0135 H       
  24 H24            1.7950     1.7905     0.9941 H       
  25 H25            0.9622     3.3843    -1.4847 H       
  26 H26            2.5088     3.5835    -0.6265 H       
  27 H27           -1.8114    -1.7672     0.8199 H       
  28 H28           -2.5293    -0.2020    -3.6436 H       
  29 H29            0.8567     5.1257     0.1469 H       
  30 H30           -4.7921    -2.3646     0.2341 H       
  31 H31           -4.4026    -3.5237    -1.0594 H       
  32 H32           -3.4434    -3.5079     0.4399 H       
@<TRIPOS>BOND
   1    1   11 1
   2    1   13 1
   3    2   14 1
   4    2   29 1
   5    3   16 2
   6    4   18 2
   7    5   15 1
   8    5   16 am
   9    5   11 1
  10    6    8 2
  11    6   10 1
  12    7   16 am
  13    7   18 am
  14    7   28 1
  15    8    9 2
  16   10   12 1
  17   10   13 1
  18   10   20 1
  19   11   12 1
  20   11   21 1
  21   12   22 1
  22   12   23 1
  23   13   14 1
  24   13   24 1
  25   14   25 1
  26   14   26 1
  27   15   17 2
  28   15   27 1
  29   17   18 1
  30   17   19 1
  31   19   30 1
  32   19   31 1
  33   19   32 1

#	End of record

