#	Name: ASD05730080
#	Creating user name:	WinNT
#	Creation time:	15. 06. 2019 21:02

#	Modifying user name:	WinNT
#	Modification time:	15. 06. 2019 21:02

#	Program:	/corina/corina34_cracker 3.40 0067  02.08.2006

@<TRIPOS>MOLECULE
ASD05730080
  63   67    0    0    0
SMALL
NO_CHARGES


@<TRIPOS>ATOM
   1 C1             2.2008     0.7513    -1.5930 C.3     
   2 N2             1.9967     1.7555    -0.5389 N.3     
   3 C3             2.6728     1.3522     0.7027 C.3     
   4 C4             2.1272    -0.0042     1.1571 C.3     
   5 O5             2.3060    -0.9599     0.1082 O.3     
   6 C6             1.6600    -0.5991    -1.1156 C.3     
   7 C7             2.8716    -0.4601     2.3855 C.ar    
   8 C8             2.3055    -0.2948     3.6363 C.ar    
   9 C9             2.9850    -0.7115     4.7641 C.ar    
  10 C10            4.2385    -1.2971     4.6410 C.ar    
  11 C11            4.8043    -1.4617     3.3831 C.ar    
  12 C12            4.1170    -1.0479     2.2590 C.ar    
  13 N13            4.9293    -1.7196     5.7806 N.pl3   
  14 C14            4.8184    -1.0074     6.9594 C.ar    
  15 N15            5.3909    -1.4892     8.0520 N.ar    
  16 C16            5.3064    -0.8327     9.2036 C.ar    
  17 C17            4.5954     0.3864     9.2384 C.ar    
  18 C18            4.0069     0.8543     8.0539 C.ar    
  19 N19            4.1461     0.1384     6.9538 N.ar    
  20 N20            5.8960    -1.3248    10.3405 N.am    
  21 C21            5.8064    -0.6553    11.5058 C.2     
  22 C22            5.0763     0.6122    11.5765 C.2     
  23 C23            4.4858     1.1117    10.4468 C.2     
  24 C24            6.6301    -2.5915    10.2866 C.3     
  25 C25            8.0969    -2.3169     9.9493 C.3     
  26 O26            6.3351    -1.1067    12.5062 O.2     
  27 C27            4.9785     1.3479    12.8588 C.ar    
  28 C28            3.7860     1.3401    13.5811 C.ar    
  29 C29            3.7009     2.0268    14.7752 C.ar    
  30 C30            4.7955     2.7224    15.2564 C.ar    
  31 C31            5.9819     2.7349    14.5448 C.ar    
  32 C32            6.0815     2.0470    13.3516 C.ar    
  33 Cl33           7.5708     2.0629    12.4598 Cl      
  34 S34            4.6782     3.5965    16.7818 S.o2    
  35 C35            5.1802     2.3865    18.0366 C.3     
  36 O36            5.6475     4.6294    16.6692 O.2     
  37 O37            3.2955     3.8997    16.9065 O.2     
  38 H38            1.6707     1.0574    -2.4949 H       
  39 H39            3.2655     0.6613    -1.8087 H       
  40 H40            2.3091     2.6659    -0.8414 H       
  41 H41            3.7449     1.2718     0.5237 H       
  42 H42            2.4871     2.0969     1.4767 H       
  43 H43            1.0659     0.0890     1.3875 H       
  44 H44            0.5852    -0.5231    -0.9513 H       
  45 H45            1.8606    -1.3590    -1.8708 H       
  46 H46            1.3310     0.1609     3.7313 H       
  47 H47            2.5424    -0.5818     5.7407 H       
  48 H48            5.7789    -1.9164     3.2840 H       
  49 H49            4.5563    -1.1755     1.2807 H       
  50 H50            5.4864    -2.5128     5.7438 H       
  51 H51            3.4550     1.7825     8.0416 H       
  52 H52            3.9433     2.0450    10.4786 H       
  53 H53            6.5668    -3.0895    11.2541 H       
  54 H54            6.1945    -3.2315     9.5193 H       
  55 H55            8.6431    -3.2594     9.9092 H       
  56 H56            8.1602    -1.8188     8.9819 H       
  57 H57            8.5325    -1.6769    10.7166 H       
  58 H58            2.9303     0.7978    13.2067 H       
  59 H59            2.7774     2.0215    15.3351 H       
  60 H60            6.8330     3.2801    14.9254 H       
  61 H61            6.1988     2.0551    17.8348 H       
  62 H62            5.1368     2.8473    19.0235 H       
  63 H63            4.5066     1.5301    18.0055 H       
@<TRIPOS>BOND
   1    1    2 1
   2    1    6 1
   3    1   38 1
   4    1   39 1
   5    2    3 1
   6    2   40 1
   7    3    4 1
   8    3   41 1
   9    3   42 1
  10    4    5 1
  11    4    7 1
  12    4   43 1
  13    5    6 1
  14    6   44 1
  15    6   45 1
  16    7    8 ar
  17    7   12 ar
  18    8    9 ar
  19    8   46 1
  20    9   10 ar
  21    9   47 1
  22   10   11 ar
  23   10   13 1
  24   11   12 ar
  25   11   48 1
  26   12   49 1
  27   13   14 1
  28   13   50 1
  29   14   15 ar
  30   14   19 ar
  31   15   16 ar
  32   16   17 ar
  33   16   20 1
  34   17   18 ar
  35   17   23 1
  36   18   19 ar
  37   18   51 1
  38   20   21 am
  39   20   24 1
  40   21   22 1
  41   21   26 2
  42   22   23 2
  43   22   27 1
  44   23   52 1
  45   24   25 1
  46   24   53 1
  47   24   54 1
  48   25   55 1
  49   25   56 1
  50   25   57 1
  51   27   28 ar
  52   27   32 ar
  53   28   29 ar
  54   28   58 1
  55   29   30 ar
  56   29   59 1
  57   30   31 ar
  58   30   34 1
  59   31   32 ar
  60   31   60 1
  61   32   33 1
  62   34   35 1
  63   34   36 2
  64   34   37 2
  65   35   61 1
  66   35   62 1
  67   35   63 1

#	End of record

