#	Name: ASD03330953
#	Creating user name:	WinNT
#	Creation time:	15. 06. 2019 20:38

#	Modifying user name:	WinNT
#	Modification time:	15. 06. 2019 20:38

#	Program:	/corina/corina34_cracker 3.40 0067  02.08.2006

@<TRIPOS>MOLECULE
ASD03330953
  81   85    0    0    0
SMALL
NO_CHARGES


@<TRIPOS>ATOM
   1 N1            -0.8686     1.7513    -0.3880 N.pl3   
   2 C2            -0.6995     0.4334    -0.0996 C.2     
   3 C3             0.6049    -0.2243     0.2678 C.3     
   4 N4             1.2829     0.5873     1.2906 N.3     
   5 C5             2.1381     1.6058     0.6782 C.3     
   6 C6             1.5343     2.1117    -0.6287 C.3     
   7 C7             0.1814     2.7734    -0.3528 C.3     
   8 C8            -2.1842     1.9361    -0.6990 C.2     
   9 N9            -2.8060     0.7855    -0.5900 N.2     
  10 C10           -1.9180    -0.1627    -0.2186 C.2     
  11 C11           -2.2149    -1.5869     0.0152 C.2     
  12 O12           -1.3254    -2.3469     0.3477 O.2     
  13 N13           -3.4721    -2.0475    -0.1393 N.am    
  14 C14            2.0511    -0.2608     2.2117 C.3     
  15 C15           -4.9912    -3.8572    -0.6929 C.2     
  16 C16           -3.7672    -3.4635     0.0932 C.3     
  17 C17           -4.0230    -3.6930     1.5841 C.3     
  18 C18           -4.4330    -5.1492     1.8130 C.3     
  19 O19           -5.8406    -3.0297    -0.9472 O.2     
  20 C20           -5.5860    -8.3985    -2.0461 C.2     
  21 N21           -5.9274    -9.4473    -2.8168 N.am    
  22 C22           -5.6302    -9.1884    -4.2310 C.3     
  23 C23           -4.6496    -7.9934    -4.2348 C.3     
  24 C24           -4.9921    -7.3050    -2.8985 C.3     
  25 C25           -6.0101    -6.1932    -3.1301 C.3     
  26 C26           -6.3771    -5.5518    -1.7872 C.3     
  27 N27           -5.1419    -5.1288    -1.1133 N.am    
  28 C28           -4.0736    -6.1160    -0.9061 C.3     
  29 C29           -3.7240    -6.7533    -2.2556 C.3     
  30 O30           -5.7382    -8.3391    -0.8443 O.2     
  31 C31           -6.5191   -10.6880    -2.3099 C.3     
  32 C32           -2.7468    -3.3925     2.3727 C.3     
  33 C33           -5.1450    -2.7668     2.0576 C.3     
  34 C34           -2.8060     3.2191    -1.0927 C.ar    
  35 C35           -3.6557     3.2764    -2.2006 C.ar    
  36 C36           -4.2336     4.4787    -2.5624 C.ar    
  37 C37           -3.9721     5.6225    -1.8305 C.ar    
  38 C38           -3.1307     5.5718    -0.7321 C.ar    
  39 C39           -2.5513     4.3760    -0.3563 C.ar    
  40 F40           -3.9114     2.1595    -2.9165 F       
  41 Cl41          -2.8084     7.0140     0.1789 Cl      
  42 H42            0.4114    -1.2215     0.6633 H       
  43 H43            1.2374    -0.2985    -0.6167 H       
  44 H44            2.2498     2.4419     1.3685 H       
  45 H45            3.1191     1.1755     0.4765 H       
  46 H46            2.2079     2.8393    -1.0814 H       
  47 H47            1.3953     1.2739    -1.3120 H       
  48 H48           -0.0179     3.5269    -1.1147 H       
  49 H49            0.1994     3.2435     0.6304 H       
  50 H50           -4.1815    -1.4414    -0.4044 H       
  51 H51            2.7554    -0.8688     1.6439 H       
  52 H52            2.5981     0.3682     2.9141 H       
  53 H53            1.3699    -0.9110     2.7606 H       
  54 H54           -2.9193    -4.0687    -0.2273 H       
  55 H55           -3.6314    -5.8088     1.4807 H       
  56 H56           -4.6205    -5.3113     2.8744 H       
  57 H57           -5.3392    -5.3648     1.2468 H       
  58 H58           -5.1616   -10.0621    -4.6840 H       
  59 H59           -6.5431    -8.9288    -4.7669 H       
  60 H60           -3.6153    -8.3371    -4.2431 H       
  61 H61           -4.8458    -7.3301    -5.0772 H       
  62 H62           -5.5804    -5.4381    -3.7883 H       
  63 H63           -6.9056    -6.6104    -3.5906 H       
  64 H64           -7.0154    -4.6850    -1.9584 H       
  65 H65           -6.9018    -6.2781    -1.1664 H       
  66 H66           -3.1931    -5.6213    -0.4964 H       
  67 H67           -4.4170    -6.8867    -0.2159 H       
  68 H68           -3.0122    -7.5642    -2.1012 H       
  69 H69           -3.2825    -6.0011    -2.9094 H       
  70 H70           -6.6341   -10.6202    -1.2281 H       
  71 H71           -7.4954   -10.8396    -2.7703 H       
  72 H72           -5.8679   -11.5273    -2.5542 H       
  73 H73           -2.4547    -2.3551     2.2097 H       
  74 H74           -2.9290    -3.5561     3.4349 H       
  75 H75           -1.9474    -4.0524     2.0354 H       
  76 H76           -6.0542    -2.9809     1.4958 H       
  77 H77           -5.3273    -2.9303     3.1197 H       
  78 H78           -4.8529    -1.7294     1.8945 H       
  79 H79           -4.8903     4.5250    -3.4186 H       
  80 H80           -4.4260     6.5596    -2.1172 H       
  81 H81           -1.8991     4.3374     0.5036 H       
@<TRIPOS>BOND
   1    1    2 1
   2    1    7 1
   3    1    8 1
   4    2    3 1
   5    2   10 2
   6    3    4 1
   7    3   42 1
   8    3   43 1
   9    4    5 1
  10    4   14 1
  11    5    6 1
  12    5   44 1
  13    5   45 1
  14    6    7 1
  15    6   46 1
  16    6   47 1
  17    7   48 1
  18    7   49 1
  19    8    9 2
  20    8   34 1
  21    9   10 1
  22   10   11 1
  23   11   12 2
  24   11   13 am
  25   13   16 1
  26   13   50 1
  27   14   51 1
  28   14   52 1
  29   14   53 1
  30   15   19 2
  31   15   27 am
  32   15   16 1
  33   16   17 1
  34   16   54 1
  35   17   18 1
  36   17   32 1
  37   17   33 1
  38   18   55 1
  39   18   56 1
  40   18   57 1
  41   20   21 am
  42   20   24 1
  43   20   30 2
  44   21   22 1
  45   21   31 1
  46   22   23 1
  47   22   58 1
  48   22   59 1
  49   23   24 1
  50   23   60 1
  51   23   61 1
  52   24   25 1
  53   24   29 1
  54   25   26 1
  55   25   62 1
  56   25   63 1
  57   26   27 1
  58   26   64 1
  59   26   65 1
  60   27   28 1
  61   28   29 1
  62   28   66 1
  63   28   67 1
  64   29   68 1
  65   29   69 1
  66   31   70 1
  67   31   71 1
  68   31   72 1
  69   32   73 1
  70   32   74 1
  71   32   75 1
  72   33   76 1
  73   33   77 1
  74   33   78 1
  75   34   35 ar
  76   34   39 ar
  77   35   36 ar
  78   35   40 1
  79   36   37 ar
  80   36   79 1
  81   37   38 ar
  82   37   80 1
  83   38   39 ar
  84   38   41 1
  85   39   81 1

#	End of record

