#	Name: ASD00990104
#	Creating user name:	WinNT
#	Creation time:	15. 06. 2019 18:54

#	Modifying user name:	WinNT
#	Modification time:	15. 06. 2019 18:54

#	Program:	/corina/corina34_cracker 3.40 0067  02.08.2006

@<TRIPOS>MOLECULE
ASD00990104
  45   48    0    0    0
SMALL
NO_CHARGES


@<TRIPOS>ATOM
   1 C1            -0.0166     1.3766     0.0096 C.ar    
   2 C2             0.0021    -0.0041     0.0020 C.ar    
   3 C3             1.2119    -0.6804    -0.0132 C.ar    
   4 C4             2.4076     0.0373    -0.0208 C.ar    
   5 C5             2.3862     1.4229    -0.0128 C.ar    
   6 C6             1.1732     2.0925     0.0021 C.ar    
   7 N7             3.4371    -0.9034    -0.0362 N.am    
   8 C8             4.8735    -0.6155    -0.0479 C.3     
   9 C9             5.3793    -0.5255     1.3689 C.2     
  10 N10            6.6807    -0.2665     1.6046 N.am    
  11 C11            7.1724    -0.1790     2.9818 C.3     
  12 O12            4.6151    -0.6860     2.2969 O.2     
  13 C13            7.6037    -0.0726     0.4836 C.3     
  14 C14            7.6202    -1.5421     3.4430 C.2     
  15 N15            8.8993    -2.0015     3.3892 N.pl3   
  16 C16            8.8969    -3.2842     3.9017 C.ar    
  17 C17            7.5654    -3.5566     4.2573 C.ar    
  18 N18            6.8405    -2.4488     3.9556 N.2     
  19 C19            9.8786    -4.2448     4.1031 C.ar    
  20 C20            9.5431    -5.4636     4.6519 C.ar    
  21 C21            8.2282    -5.7386     5.0050 C.ar    
  22 C22            7.2417    -4.7975     4.8131 C.ar    
  23 O23            1.5334    -1.9982    -0.0238 O.3     
  24 C24            2.8693    -2.1257    -0.0376 C.2     
  25 O25            3.4739    -3.1807    -0.0498 O.2     
  26 Cl26           7.8256    -7.2804     5.6938 Cl      
  27 O27            1.1479     3.4519     0.0100 O.3     
  28 C28           -0.1371     4.0768     0.0253 C.3     
  29 F29           -0.8345     3.6811     1.1718 F       
  30 F30            0.0203     5.4668     0.0317 F       
  31 F31           -0.8553     3.6941    -1.1127 F       
  32 H32           -0.9604     1.9017     0.0169 H       
  33 H33           -0.9257    -0.5569     0.0083 H       
  34 H34            3.3120     1.9791    -0.0188 H       
  35 H35            5.3998    -1.4135    -0.5715 H       
  36 H36            5.0500     0.3317    -0.5576 H       
  37 H37            8.0133     0.5132     3.0241 H       
  38 H38            6.3735     0.1798     3.6307 H       
  39 H39            7.6307     0.9831     0.2136 H       
  40 H40            8.6023    -0.3989     0.7744 H       
  41 H41            7.2650    -0.6577    -0.3714 H       
  42 H42            9.6702    -1.5182     3.0530 H       
  43 H43           10.9028    -4.0376     3.8302 H       
  44 H44           10.3078    -6.2102     4.8081 H       
  45 H45            6.2213    -5.0178     5.0897 H       
@<TRIPOS>BOND
   1    1    2 ar
   2    1    6 ar
   3    1   32 1
   4    2    3 ar
   5    2   33 1
   6    3    4 ar
   7    3   23 1
   8    4    5 ar
   9    4    7 1
  10    5    6 ar
  11    5   34 1
  12    6   27 1
  13    7    8 1
  14    7   24 am
  15    8    9 1
  16    8   35 1
  17    8   36 1
  18    9   10 am
  19    9   12 2
  20   10   11 1
  21   10   13 1
  22   11   14 1
  23   11   37 1
  24   11   38 1
  25   13   39 1
  26   13   40 1
  27   13   41 1
  28   14   15 1
  29   14   18 2
  30   15   16 1
  31   15   42 1
  32   16   17 ar
  33   16   19 ar
  34   17   18 1
  35   17   22 ar
  36   19   20 ar
  37   19   43 1
  38   20   21 ar
  39   20   44 1
  40   21   22 ar
  41   21   26 1
  42   22   45 1
  43   23   24 1
  44   24   25 2
  45   27   28 1
  46   28   29 1
  47   28   30 1
  48   28   31 1

#	End of record

