#	Name: ASD01814556
#	Creating user name:	WinNT
#	Creation time:	15. 06. 2019 19:32

#	Modifying user name:	WinNT
#	Modification time:	15. 06. 2019 19:32

#	Program:	/corina/corina34_cracker 3.40 0067  02.08.2006

@<TRIPOS>MOLECULE
ASD01814556
  65   69    0    0    0
SMALL
NO_CHARGES


@<TRIPOS>ATOM
   1 C1            -0.0168     1.3882     0.0097 C.ar    
   2 C2             0.0021    -0.0041     0.0020 C.ar    
   3 C3             1.1795    -0.6891    -0.0124 C.ar    
   4 C4             2.3944     0.0147    -0.0202 C.ar    
   5 C5             2.3745     1.4312    -0.0129 C.ar    
   6 C6             1.1424     2.1038     0.0024 C.ar    
   7 C7             3.6273    -0.6667    -0.0345 C.ar    
   8 C8             4.7911     0.0287    -0.0410 C.ar    
   9 C9             4.7929     1.4362    -0.0341 C.ar    
  10 C10            3.5923     2.1420    -0.0203 C.ar    
  11 O11            3.5945     3.4965    -0.0140 O.3     
  12 C12            3.5844     4.1511    -1.2841 C.3     
  13 C13            6.0721     2.1670    -0.0414 C.2     
  14 O14            6.0777     3.3832    -0.0354 O.2     
  15 N15            7.2362     1.4879    -0.0548 N.am    
  16 C16            3.6526    -2.1735    -0.0423 C.3     
  17 C17            3.5246    -2.6708    -1.4591 C.ar    
  18 C18            4.6534    -2.8806    -2.2299 C.ar    
  19 C19            2.2734    -2.9280    -2.0007 C.ar    
  20 C20            2.1993    -3.3842    -3.3057 C.ar    
  21 C21            3.3772    -3.5682    -4.0262 C.ar    
  22 N22            4.5547    -3.3151    -3.4696 N.ar    
  23 C23            8.5082     2.2146    -0.0621 C.3     
  24 C24            8.9030     2.5709     1.3744 C.3     
  25 C25            9.5992     1.3317    -0.6758 C.3     
  26 C26           10.9394     2.0685    -0.6073 C.3     
  27 O27           11.2318     2.3974     0.7522 O.3     
  28 C28           10.2702     3.2597     1.3636 C.3     
  29 O29            9.2767     1.0527    -2.0397 O.3     
  30 C30            3.3147    -4.0569    -5.4255 C.ar    
  31 C31            2.0868    -4.2344    -6.0592 C.ar    
  32 C32            4.4872    -4.3413    -6.1315 C.ar    
  33 C33            4.3753    -4.7946    -7.4344 C.ar    
  34 C34            3.1187    -4.9504    -7.9910 C.ar    
  35 N35            2.0301    -4.6687    -7.3017 N.ar    
  36 C36            2.9916    -5.4437    -9.4093 C.3     
  37 H37           -0.9635     1.9079     0.0170 H       
  38 H38           -0.9304    -0.5489     0.0080 H       
  39 H39            1.1785    -1.7691    -0.0175 H       
  40 H40            1.1136     3.1834     0.0085 H       
  41 H41            5.7301    -0.5049    -0.0514 H       
  42 H42            4.4690     3.8595    -1.8503 H       
  43 H43            2.6891     3.8623    -1.8347 H       
  44 H44            3.5874     5.2311    -1.1363 H       
  45 H45            7.2317     0.5179    -0.0596 H       
  46 H46            4.5938    -2.5232     0.3819 H       
  47 H47            2.8223    -2.5539     0.5527 H       
  48 H48            5.6291    -2.6853    -1.8100 H       
  49 H49            1.3774    -2.7762    -1.4172 H       
  50 H50            1.2418    -3.5947    -3.7586 H       
  51 H51            8.4048     3.1273    -0.6489 H       
  52 H52            8.1592     3.2442     1.8003 H       
  53 H53            8.9580     1.6617     1.9732 H       
  54 H54            9.6682     0.3976    -0.1184 H       
  55 H55           11.7271     1.4277    -1.0038 H       
  56 H56           10.8823     2.9826    -1.1983 H       
  57 H57           10.2043     4.1894     0.7984 H       
  58 H58           10.5757     3.4772     2.3871 H       
  59 H59            9.9262     0.4969    -2.4916 H       
  60 H60            1.1732    -4.0143    -5.5270 H       
  61 H61            5.4558    -4.2102    -5.6721 H       
  62 H62            5.2596    -5.0240    -8.0104 H       
  63 H63            2.9306    -6.5320    -9.4113 H       
  64 H64            2.0898    -5.0284    -9.8590 H       
  65 H65            3.8626    -5.1276    -9.9833 H       
@<TRIPOS>BOND
   1    1    2 ar
   2    1    6 ar
   3    1   37 1
   4    2    3 ar
   5    2   38 1
   6    3    4 ar
   7    3   39 1
   8    4    5 ar
   9    4    7 ar
  10    5    6 ar
  11    5   10 ar
  12    6   40 1
  13    7    8 ar
  14    7   16 1
  15    8    9 ar
  16    8   41 1
  17    9   10 ar
  18    9   13 1
  19   10   11 1
  20   11   12 1
  21   12   42 1
  22   12   43 1
  23   12   44 1
  24   13   14 2
  25   13   15 am
  26   15   23 1
  27   15   45 1
  28   16   17 1
  29   16   46 1
  30   16   47 1
  31   17   18 ar
  32   17   19 ar
  33   18   22 ar
  34   18   48 1
  35   19   20 ar
  36   19   49 1
  37   20   21 ar
  38   20   50 1
  39   21   22 ar
  40   21   30 1
  41   23   24 1
  42   23   25 1
  43   23   51 1
  44   24   28 1
  45   24   52 1
  46   24   53 1
  47   25   26 1
  48   25   29 1
  49   25   54 1
  50   26   27 1
  51   26   55 1
  52   26   56 1
  53   27   28 1
  54   28   57 1
  55   28   58 1
  56   29   59 1
  57   30   31 ar
  58   30   32 ar
  59   31   35 ar
  60   31   60 1
  61   32   33 ar
  62   32   61 1
  63   33   34 ar
  64   33   62 1
  65   34   35 ar
  66   34   36 1
  67   36   63 1
  68   36   64 1
  69   36   65 1

#	End of record

