#	Name: ASD06860001
#	Creating user name:	WinNT
#	Creation time:	15. 06. 2019 21:08

#	Modifying user name:	WinNT
#	Modification time:	15. 06. 2019 21:08

#	Program:	/corina/corina34_cracker 3.40 0067  02.08.2006

@<TRIPOS>MOLECULE
ASD06860001
  40   41    0    0    0
SMALL
NO_CHARGES


@<TRIPOS>ATOM
   1 C1             0.3013     2.4913    -0.4632 C.2     
   2 C2            -0.0469     1.2602     0.0070 C.2     
   3 C3             0.9558     0.3501     0.3752 C.2     
   4 C4             2.2586     0.6895     0.2657 C.2     
   5 C5             1.6614     2.8283    -0.5714 C.2     
   6 C6             2.3055     3.9913    -1.0110 C.2     
   7 N7             2.6219     1.9197    -0.2035 N.pl3   
   8 C8             3.8595     2.4936    -0.4048 C.2     
   9 C9             3.6669     3.7803    -0.9076 C.2     
  10 C10            5.1063     1.8838    -0.1472 C.2     
  11 C11            4.7492     4.7641    -1.2709 C.3     
  12 O12            1.6994     5.1254    -1.4599 O.3     
  13 C13            1.3918     6.1253    -0.4865 C.3     
  14 C14            5.6803     1.9222     1.2136 C.ar    
  15 O15            5.7096     1.3252    -1.0479 O.2     
  16 C16            5.0408     2.6543     2.2221 C.ar    
  17 C17            6.8527     1.2263     1.4933 C.ar    
  18 C18            7.3913     1.2654     2.7797 C.ar    
  19 C19            6.7438     2.0087     3.7840 C.ar    
  20 C20            5.5688     2.6956     3.4910 C.ar    
  21 N21            7.2713     2.0525     5.0620 N.pl3   
  22 C22            8.6297     0.5327     3.0849 C.2     
  23 O23            9.2576    -0.0089     2.1852 O.co2   
  24 O24            9.0319     0.4649     4.2384 O.co2   
  25 H25           -0.4606     3.1993    -0.7542 H       
  26 H26           -1.0880     0.9870     0.0961 H       
  27 H27            0.6845    -0.6264     0.7483 H       
  28 H28            3.0212    -0.0194     0.5525 H       
  29 H29            4.9474     5.4166    -0.4206 H       
  30 H30            5.6584     4.2233    -1.5336 H       
  31 H31            4.4245     5.3638    -2.1212 H       
  32 H32            0.9131     6.9736    -0.9758 H       
  33 H33            0.7170     5.7090     0.2613 H       
  34 H34            2.3108     6.4562    -0.0026 H       
  35 H35            4.1289     3.1893     2.0019 H       
  36 H36            7.3437     0.6577     0.7173 H       
  37 H37            5.0703     3.2629     4.2631 H       
  38 H38            8.2148     1.8773     5.2035 H       
  39 H39            6.6977     2.2585     5.8166 H       
  40 Na40          14.2576    11.9736    10.8166 Du      
@<TRIPOS>BOND
   1    1    2 2
   2    1    5 1
   3    1   25 1
   4    2    3 1
   5    2   26 1
   6    3    4 2
   7    3   27 1
   8    4    7 1
   9    4   28 1
  10    5    7 1
  11    5    6 2
  12    6    9 1
  13    6   12 1
  14    7    8 1
  15    8    9 2
  16    8   10 1
  17    9   11 1
  18   10   14 1
  19   10   15 2
  20   11   29 1
  21   11   30 1
  22   11   31 1
  23   12   13 1
  24   13   32 1
  25   13   33 1
  26   13   34 1
  27   14   17 ar
  28   14   16 ar
  29   16   20 ar
  30   16   35 1
  31   17   18 ar
  32   17   36 1
  33   18   19 ar
  34   18   22 1
  35   19   20 ar
  36   19   21 1
  37   20   37 1
  38   21   38 1
  39   21   39 1
  40   22   23 ar
  41   22   24 ar

#	End of record

