#	Name: ASD01914685
#	Creating user name:	WinNT
#	Creation time:	15. 06. 2019 20:04

#	Modifying user name:	WinNT
#	Modification time:	15. 06. 2019 20:04

#	Program:	/corina/corina34_cracker 3.40 0067  02.08.2006

@<TRIPOS>MOLECULE
ASD01914685
  52   56    0    0    0
SMALL
NO_CHARGES


@<TRIPOS>ATOM
   1 C1            -0.0168     1.3879     0.0097 C.ar    
   2 C2             0.0021    -0.0041     0.0020 C.ar    
   3 C3             1.2256    -0.6613    -0.0132 C.ar    
   4 C4             2.3862     0.1017    -0.0203 C.ar    
   5 C5             2.2897     1.4827    -0.0119 C.ar    
   6 N6             1.1168     2.0787     0.0026 N.ar    
   7 C7            -1.3136     2.1047     0.0197 C.2     
   8 O8            -2.3544     1.4777     0.0212 O.2     
   9 N9            -1.3387     3.4522     0.0271 N.am    
  10 C10           -2.6208     4.1610     0.0371 C.3     
  11 C11           -2.3692     5.6701     0.0441 C.3     
  12 C12           -3.7082     6.4103     0.0544 C.3     
  13 C13           -4.4976     6.0190     1.3053 C.3     
  14 C14           -4.7492     4.5099     1.2983 C.3     
  15 C15           -5.5503     4.1322     0.0508 C.3     
  16 C16           -4.7610     4.5234    -1.2001 C.3     
  17 C17           -3.4220     3.7833    -1.2105 C.3     
  18 C18           -4.5094     6.0326    -1.1931 C.3     
  19 C19           -3.4102     3.7697     1.2879 C.3     
  20 N20           -3.4674     7.8554     0.0611 N.am    
  21 C21           -4.5079     8.7119     0.0707 C.2     
  22 O22           -5.6458     8.2856     0.0738 O.2     
  23 C23           -4.2643    10.1734     0.0775 C.ar    
  24 C24           -5.3441    11.0536     0.0874 C.ar    
  25 C25           -5.1004    12.4179     0.0941 C.ar    
  26 C26           -3.7847    12.8546     0.0907 C.ar    
  27 C27           -2.7597    11.9224     0.0808 C.ar    
  28 N28           -3.0192    10.6330     0.0797 N.ar    
  29 F29            1.2854    -2.0110    -0.0206 F       
  30 H30           -0.9210    -0.5646     0.0082 H       
  31 H31            3.3540    -0.3775    -0.0318 H       
  32 H32            3.1899     2.0793    -0.0174 H       
  33 H33           -0.5078     3.9528     0.0259 H       
  34 H34           -1.7985     5.9392     0.9328 H       
  35 H35           -1.8069     5.9489    -0.8471 H       
  36 H36           -3.9268     6.2881     2.1941 H       
  37 H37           -5.4515     6.5463     1.3127 H       
  38 H38           -5.3115     4.2311     2.1894 H       
  39 H39           -5.7295     3.0570     0.0458 H       
  40 H40           -6.5043     4.6595     0.0581 H       
  41 H41           -5.3318     4.2544    -2.0889 H       
  42 H42           -2.8596     4.0620    -2.1016 H       
  43 H43           -3.6012     2.7081    -1.2155 H       
  44 H44           -5.4634     6.5599    -1.1857 H       
  45 H45           -3.9471     6.3114    -2.0843 H       
  46 H46           -3.5894     2.6945     1.2829 H       
  47 H47           -2.8394     4.0388     2.1767 H       
  48 H48           -2.5590     8.1957     0.0587 H       
  49 H49           -6.3567    10.6781     0.0894 H       
  50 H50           -5.9169    13.1247     0.1015 H       
  51 H51           -3.5609    13.9111     0.0954 H       
  52 H52           -1.7335    12.2591     0.0781 H       
@<TRIPOS>BOND
   1    1    2 ar
   2    1    6 ar
   3    1    7 1
   4    2    3 ar
   5    2   30 1
   6    3    4 ar
   7    3   29 1
   8    4    5 ar
   9    4   31 1
  10    5    6 ar
  11    5   32 1
  12    7    8 2
  13    7    9 am
  14    9   10 1
  15    9   33 1
  16   10   11 1
  17   10   17 1
  18   10   19 1
  19   11   12 1
  20   11   34 1
  21   11   35 1
  22   12   13 1
  23   12   18 1
  24   12   20 1
  25   13   14 1
  26   13   36 1
  27   13   37 1
  28   14   15 1
  29   14   19 1
  30   14   38 1
  31   15   16 1
  32   15   39 1
  33   15   40 1
  34   16   17 1
  35   16   18 1
  36   16   41 1
  37   17   42 1
  38   17   43 1
  39   18   44 1
  40   18   45 1
  41   19   46 1
  42   19   47 1
  43   20   21 am
  44   20   48 1
  45   21   22 2
  46   21   23 1
  47   23   24 ar
  48   23   28 ar
  49   24   25 ar
  50   24   49 1
  51   25   26 ar
  52   25   50 1
  53   26   27 ar
  54   26   51 1
  55   27   28 ar
  56   27   52 1

#	End of record

