#	Name: ASD05720007
#	Creating user name:	WinNT
#	Creation time:	15. 06. 2019 21:01

#	Modifying user name:	WinNT
#	Modification time:	15. 06. 2019 21:01

#	Program:	/corina/corina34_cracker 3.40 0067  02.08.2006

@<TRIPOS>MOLECULE
ASD05720007
  43   44    0    0    0
SMALL
NO_CHARGES


@<TRIPOS>ATOM
   1 N1            -0.0170     1.4001     0.0097 N.pl3   
   2 N2             0.0021    -0.0041     0.0020 N.2     
   3 C3             1.2665    -0.3650    -0.0120 C.2     
   4 N4             2.0278     0.7374    -0.0133 N.2     
   5 C5             1.2673     1.8001    -0.0004 C.2     
   6 C6            -1.2027     2.2605     0.0203 C.3     
   7 O7            -0.7970     3.6306     0.0251 O.3     
   8 C8            -1.8837     4.5585     0.0355 C.3     
   9 C9            -1.3349     5.9867     0.0399 C.3     
  10 Si10          -2.7517     7.1964     0.0534 Si      
  11 C11           -3.7863     6.9240     1.5786 C.3     
  12 C12           -2.0834     8.9354     0.0588 C.3     
  13 C13           -3.8021     6.9395    -1.4636 C.3     
  14 C14            1.7671    -1.7620    -0.0235 C.ar    
  15 C15            3.1378    -2.0133    -0.0380 C.ar    
  16 C16            3.5983    -3.3139    -0.0488 C.ar    
  17 C17            2.7012    -4.3683    -0.0456 C.ar    
  18 C18            1.3391    -4.1240    -0.0312 C.ar    
  19 C19            0.8685    -2.8265    -0.0141 C.ar    
  20 C20            5.0802    -3.5871    -0.0645 C.3     
  21 Br21           3.3392    -6.1483    -0.0616 Br      
  22 H22            1.6111     2.8239     0.0013 H       
  23 H23           -1.8032     2.0625    -0.8676 H       
  24 H24           -1.7939     2.0534     0.9123 H       
  25 H25           -2.4983     4.4082    -0.8521 H       
  26 H26           -2.4891     4.3992     0.9278 H       
  27 H27           -0.7203     6.1370     0.9275 H       
  28 H28           -0.7296     6.1461    -0.8524 H       
  29 H29           -3.1717     7.0743     2.4661 H       
  30 H30           -4.6152     7.6318     1.5865 H       
  31 H31           -4.1773     5.9065     1.5754 H       
  32 H32           -1.4781     9.0948    -0.8336 H       
  33 H33           -2.9123     9.6432     0.0667 H       
  34 H34           -1.4688     9.0857     0.9464 H       
  35 H35           -4.1931     5.9220    -1.4668 H       
  36 H36           -4.6310     7.6472    -1.4557 H       
  37 H37           -3.1968     7.0988    -2.3560 H       
  38 H38            3.8384    -1.1914    -0.0413 H       
  39 H39            0.6433    -4.9499    -0.0288 H       
  40 H40           -0.1946    -2.6369     0.0020 H       
  41 H41            5.4475    -3.6579     0.9593 H       
  42 H42            5.2711    -4.5257    -0.5847 H       
  43 H43            5.5939    -2.7753    -0.5794 H       
@<TRIPOS>BOND
   1    1    2 1
   2    1    5 1
   3    1    6 1
   4    2    3 2
   5    3    4 1
   6    3   14 1
   7    4    5 2
   8    5   22 1
   9    6    7 1
  10    6   23 1
  11    6   24 1
  12    7    8 1
  13    8    9 1
  14    8   25 1
  15    8   26 1
  16    9   10 1
  17    9   27 1
  18    9   28 1
  19   10   11 1
  20   10   12 1
  21   10   13 1
  22   11   29 1
  23   11   30 1
  24   11   31 1
  25   12   32 1
  26   12   33 1
  27   12   34 1
  28   13   35 1
  29   13   36 1
  30   13   37 1
  31   14   15 ar
  32   14   19 ar
  33   15   16 ar
  34   15   38 1
  35   16   17 ar
  36   16   20 1
  37   17   18 ar
  38   17   21 1
  39   18   19 ar
  40   18   39 1
  41   19   40 1
  42   20   41 1
  43   20   42 1
  44   20   43 1

#	End of record

