#	Name: ASD08150310
#	Creating user name:	WinNT
#	Creation time:	15. 06. 2019 21:15

#	Modifying user name:	WinNT
#	Modification time:	15. 06. 2019 21:15

#	Program:	/corina/corina34_cracker 3.40 0067  02.08.2006

@<TRIPOS>MOLECULE
ASD08150310
  74   78    0    0    0
SMALL
NO_CHARGES


@<TRIPOS>ATOM
   1 O1            -0.0161     1.3330     0.0094 O.3     
   2 C2             0.0021    -0.0041     0.0020 C.2     
   3 N3             1.2341    -0.5298    -0.0131 N.am    
   4 C4             2.2199     0.5609    -0.0177 C.3     
   5 C5             1.3491     1.8401    -0.0009 C.3     
   6 C6             1.6394     2.5476     1.3379 C.3     
   7 C7             3.0416     2.0329     1.7466 C.3     
   8 C8             2.9998     0.5471     1.3122 C.3     
   9 O9            -1.0071    -0.6806     0.0091 O.2     
  10 O10            1.6600     3.9653     1.1597 O.3     
  11 Si11           1.1914     4.8062     2.4763 Si      
  12 C12           -0.5536     4.3339     2.9262 C.3     
  13 C13            2.3274     4.4146     3.9000 C.3     
  14 C14            1.2653     6.6307     2.1066 C.3     
  15 C15            0.3324     6.9523     0.9374 C.3     
  16 C16            0.8258     7.4195     3.3417 C.3     
  17 C17            2.6985     7.0185     1.7371 C.3     
  18 C18            3.0878    -3.5927     0.0532 C.ar    
  19 N19            2.1488    -4.5210    -0.0400 N.ar    
  20 C20            0.8623    -4.1832    -0.1289 C.ar    
  21 C21            0.5148    -2.8329    -0.1225 C.ar    
  22 C22            1.5325    -1.8881    -0.0229 C.ar    
  23 N23            2.7934    -2.3012     0.0622 N.ar    
  24 C24           -2.0758    -7.1182    -0.4219 C.ar    
  25 N25           -0.8048    -7.4856    -0.3353 N.ar    
  26 C26            0.1561    -6.5845    -0.2412 C.ar    
  27 C27           -0.1837    -5.2282    -0.2335 C.ar    
  28 C28           -1.5350    -4.8827    -0.3266 C.ar    
  29 N29           -2.4375    -5.8429    -0.4179 N.ar    
  30 C30            1.5979    -7.0118    -0.1427 C.3     
  31 F31            1.6832    -8.4009    -0.2851 F       
  32 F32            2.3379    -6.3929    -1.1558 F       
  33 F33            2.1108    -6.6384     1.1041 F       
  34 O34            6.6143    -5.2553     1.3405 O.3     
  35 C35            6.0148    -5.8318     0.1771 C.3     
  36 C36            4.5338    -5.4471     0.1288 C.3     
  37 N37            4.4124    -3.9821     0.1496 N.3     
  38 C38            5.0390    -3.4245     1.3570 C.3     
  39 C39            6.5150    -3.8296     1.3930 C.3     
  40 N40           -3.0508    -8.0924    -0.5248 N.pl3   
  41 H41            2.8720     0.5194    -0.8901 H       
  42 H42            1.5411     2.4776    -0.8640 H       
  43 H43            0.8977     2.2672     2.0857 H       
  44 H44            3.8224     2.5708     1.2089 H       
  45 H45            3.1849     2.1165     2.8239 H       
  46 H46            2.4749    -0.0527     2.0557 H       
  47 H47            4.0096     0.1667     1.1579 H       
  48 H48           -0.5969     3.2665     3.1425 H       
  49 H49           -0.8668     4.8959     3.8061 H       
  50 H50           -1.2183     4.5631     2.0932 H       
  51 H51            3.3484     4.6909     3.6368 H       
  52 H52            2.0143     4.9766     4.7799 H       
  53 H53            2.2842     3.3471     4.1163 H       
  54 H54           -0.6886     6.6760     1.2006 H       
  55 H55            0.3757     8.0197     0.7211 H       
  56 H56            0.6455     6.3903     0.0575 H       
  57 H57            1.4904     7.1904     4.1747 H       
  58 H58            0.8691     8.4870     3.1254 H       
  59 H59           -0.1952     7.1432     3.6049 H       
  60 H60            3.0116     6.4565     0.8572 H       
  61 H61            2.7417     8.0859     1.5208 H       
  62 H62            3.3631     6.7894     2.5701 H       
  63 H63           -0.5187    -2.5273    -0.1934 H       
  64 H64           -1.8368    -3.8457    -0.3243 H       
  65 H65            6.5174    -5.4574    -0.7148 H       
  66 H66            6.1077    -6.9170     0.2195 H       
  67 H67            4.0862    -5.8364    -0.7856 H       
  68 H68            4.0202    -5.8671     0.9936 H       
  69 H69            4.9602    -2.3375     1.3391 H       
  70 H70            4.5335    -3.8123     2.2415 H       
  71 H71            6.9696    -3.4667     2.3148 H       
  72 H72            7.0321    -3.3970     0.5365 H       
  73 H73           -2.8010    -9.0297    -0.5329 H       
  74 H74           -3.9849    -7.8389    -0.5889 H       
@<TRIPOS>BOND
   1    1    2 1
   2    1    5 1
   3    2    3 am
   4    2    9 2
   5    3    4 1
   6    3   22 1
   7    4    5 1
   8    4    8 1
   9    4   41 1
  10    5    6 1
  11    5   42 1
  12    6    7 1
  13    6   10 1
  14    6   43 1
  15    7    8 1
  16    7   44 1
  17    7   45 1
  18    8   46 1
  19    8   47 1
  20   10   11 1
  21   11   12 1
  22   11   13 1
  23   11   14 1
  24   12   48 1
  25   12   49 1
  26   12   50 1
  27   13   51 1
  28   13   52 1
  29   13   53 1
  30   14   15 1
  31   14   17 1
  32   14   16 1
  33   15   54 1
  34   15   55 1
  35   15   56 1
  36   16   57 1
  37   16   58 1
  38   16   59 1
  39   17   60 1
  40   17   61 1
  41   17   62 1
  42   18   19 ar
  43   18   23 ar
  44   18   37 1
  45   19   20 ar
  46   20   21 ar
  47   20   27 1
  48   21   22 ar
  49   21   63 1
  50   22   23 ar
  51   24   25 ar
  52   24   29 ar
  53   24   40 1
  54   25   26 ar
  55   26   27 ar
  56   26   30 1
  57   27   28 ar
  58   28   29 ar
  59   28   64 1
  60   30   31 1
  61   30   32 1
  62   30   33 1
  63   34   35 1
  64   34   39 1
  65   35   36 1
  66   35   65 1
  67   35   66 1
  68   36   37 1
  69   36   67 1
  70   36   68 1
  71   37   38 1
  72   38   39 1
  73   38   69 1
  74   38   70 1
  75   39   71 1
  76   39   72 1
  77   40   73 1
  78   40   74 1

#	End of record

