#	Name: ASD04880425
#	Creating user name:	WinNT
#	Creation time:	15. 06. 2019 20:53

#	Modifying user name:	WinNT
#	Modification time:	15. 06. 2019 20:53

#	Program:	/corina/corina34_cracker 3.40 0067  02.08.2006

@<TRIPOS>MOLECULE
ASD04880425
  47   49    0    0    0
SMALL
NO_CHARGES


@<TRIPOS>ATOM
   1 C1            -0.0144     1.2119     0.0087 C.2     
   2 O2             0.0397    -0.0028     0.0317 O.2     
   3 N3             1.1208     1.9361    -0.0483 N.am    
   4 N4             1.1928     3.3202    -0.1911 N.2     
   5 C5             2.3945     3.7847    -0.2194 C.2     
   6 C6             3.3795     2.6455    -0.0844 C.3     
   7 C7             2.4866     1.3947     0.0364 C.3     
   8 C8             2.7079     0.7001     1.3815 C.3     
   9 C9             2.7560     0.4300    -1.1201 C.3     
  10 C10            2.7535     5.2073    -0.3618 C.ar    
  11 C11            1.7513     6.1744    -0.4791 C.ar    
  12 C12            2.0934     7.5066    -0.6125 C.ar    
  13 C13            3.4351     7.8833    -0.6297 C.ar    
  14 C14            4.4299     6.9239    -0.5133 C.ar    
  15 C15            4.0961     5.5928    -0.3741 C.ar    
  16 O16            3.7695     9.1942    -0.7614 O.3     
  17 C17            5.1631     9.5104    -0.7715 C.3     
  18 O18            1.1208     8.4502    -0.7273 O.3     
  19 C19           -0.2328     7.9930    -0.7023 C.3     
  20 C20           -1.3248     1.8935     0.0372 C.ar    
  21 C21           -2.5036     1.1505    -0.0544 C.ar    
  22 C22           -3.7236     1.7924    -0.0268 C.ar    
  23 C23           -3.7814     3.1713     0.0915 C.ar    
  24 C24           -2.6156     3.9138     0.1822 C.ar    
  25 C25           -1.3897     3.2828     0.1615 C.ar    
  26 Cl26          -5.3212     3.9723     0.1255 Cl      
  27 H27            4.0143     2.5822    -0.9682 H       
  28 H28            3.9844     2.7676     0.8141 H       
  29 H29            2.0136    -0.1345     1.4780 H       
  30 H30            3.7315     0.3293     1.4349 H       
  31 H31            2.5363     1.4108     2.1900 H       
  32 H32            2.6183     0.9511    -2.0676 H       
  33 H33            3.7794     0.0605    -1.0541 H       
  34 H34            2.0625    -0.4089    -1.0626 H       
  35 H35            0.7119     5.8812    -0.4660 H       
  36 H36            5.4683     7.2203    -0.5272 H       
  37 H37            4.8727     4.8483    -0.2788 H       
  38 H38            5.6455     8.9999    -1.6051 H       
  39 H39            5.2906    10.5872    -0.8821 H       
  40 H40            5.6162     9.1852     0.1650 H       
  41 H41           -0.3977     7.3004    -1.5277 H       
  42 H42           -0.4274     7.4852     0.2424 H       
  43 H43           -0.9058     8.8445    -0.8025 H       
  44 H44           -2.4598     0.0754    -0.1470 H       
  45 H45           -4.6360     1.2189    -0.0978 H       
  46 H46           -2.6670     4.9887     0.2739 H       
  47 H47           -0.4814     3.8623     0.2372 H       
@<TRIPOS>BOND
   1    1    2 2
   2    1    3 am
   3    1   20 1
   4    3    4 1
   5    3    7 1
   6    4    5 2
   7    5    6 1
   8    5   10 1
   9    6    7 1
  10    6   27 1
  11    6   28 1
  12    7    8 1
  13    7    9 1
  14    8   29 1
  15    8   30 1
  16    8   31 1
  17    9   32 1
  18    9   33 1
  19    9   34 1
  20   10   11 ar
  21   10   15 ar
  22   11   12 ar
  23   11   35 1
  24   12   13 ar
  25   12   18 1
  26   13   14 ar
  27   13   16 1
  28   14   15 ar
  29   14   36 1
  30   15   37 1
  31   16   17 1
  32   17   38 1
  33   17   39 1
  34   17   40 1
  35   18   19 1
  36   19   41 1
  37   19   42 1
  38   19   43 1
  39   20   21 ar
  40   20   25 ar
  41   21   22 ar
  42   21   44 1
  43   22   23 ar
  44   22   45 1
  45   23   24 ar
  46   23   26 1
  47   24   25 ar
  48   24   46 1
  49   25   47 1

#	End of record

