#	Name: ASD02560313
#	Creating user name:	WinNT
#	Creation time:	15. 06. 2019 20:25

#	Modifying user name:	WinNT
#	Modification time:	15. 06. 2019 20:25

#	Program:	/corina/corina34_cracker 3.40 0067  02.08.2006

@<TRIPOS>MOLECULE
ASD02560313
  74   74    0    0    0
SMALL
NO_CHARGES


@<TRIPOS>ATOM
   1 C1             3.9651    -0.7945    -1.1317 C.ar    
   2 C2             4.3127    -2.1344    -1.0213 C.ar    
   3 C3             5.6239    -2.4957    -0.7142 C.ar    
   4 C4             6.5816    -1.5202    -0.5186 C.ar    
   5 C5             6.2323    -0.1694    -0.6301 C.ar    
   6 C6             4.9141     0.1851    -0.9387 C.ar    
   7 C7             7.2470     0.8738    -0.4227 C.2     
   8 C8             6.9080     2.1759    -0.5307 C.2     
   9 C9             7.9175     3.2139    -0.3243 C.2     
  10 N10            7.5790     4.5140    -0.4322 N.am    
  11 O11            9.0633     2.9036    -0.0552 O.2     
  12 C12            8.5902     5.5538    -0.2255 C.3     
  13 O13            3.3725    -3.0958    -1.2127 O.3     
  14 O14            5.9596    -3.8091    -0.6066 O.3     
  15 C15            8.3640     9.3949    -0.3672 C.3     
  16 C16            9.4201    10.4808    -0.1513 C.3     
  17 C17            8.7790    11.8584    -0.3301 C.3     
  18 C18            9.8350    12.9443    -0.1143 C.3     
  19 C19            9.1939    14.3219    -0.2931 C.3     
  20 C20           10.2341    15.3914    -0.0804 C.2     
  21 C21           10.4173    16.3169    -0.9893 C.2     
  22 C22            9.4805    16.4135    -2.1658 C.3     
  23 C23            8.9473    17.8433    -2.2771 C.3     
  24 C24            7.9962    17.9414    -3.4715 C.3     
  25 C25            7.4631    19.3712    -3.5828 C.3     
  26 C26            6.5119    19.4693    -4.7772 C.3     
  27 C27            5.9788    20.8991    -4.8885 C.3     
  28 C28            5.0277    20.9972    -6.0829 C.3     
  29 C29            4.4945    22.4270    -6.1942 C.3     
  30 C30            9.0051     8.0173    -0.1884 C.3     
  31 C31            7.9491     6.9314    -0.4043 C.3     
  32 H32            2.9491    -0.5198    -1.3739 H       
  33 H33            7.5974    -1.7988    -0.2800 H       
  34 H34            4.6410     1.2264    -1.0255 H       
  35 H35            8.2636     0.5985    -0.1839 H       
  36 H36            5.8913     2.4513    -0.7695 H       
  37 H37            6.6659     4.7613    -0.6466 H       
  38 H38            8.9965     5.4702     0.7825 H       
  39 H39            9.3929     5.4295    -0.9523 H       
  40 H40            3.2962    -3.3943    -2.1293 H       
  41 H41            6.2529    -4.2094    -1.4367 H       
  42 H42            7.5613     9.5192     0.3596 H       
  43 H43            7.9577     9.4785    -1.3752 H       
  44 H44            9.8264    10.3972     0.8567 H       
  45 H45           10.2228    10.3565    -0.8781 H       
  46 H46            8.3727    11.9420    -1.3381 H       
  47 H47            7.9762    11.9827     0.3967 H       
  48 H48           10.2413    12.8607     0.8937 H       
  49 H49           10.6378    12.8200    -0.8411 H       
  50 H50            8.7876    14.4055    -1.3010 H       
  51 H51            8.3912    14.4462     0.4337 H       
  52 H52           10.8285    15.3950     0.8213 H       
  53 H53           11.2397    17.0106    -0.8956 H       
  54 H54           10.0158    16.1533    -3.0789 H       
  55 H55            8.6473    15.7251    -2.0243 H       
  56 H56            8.4120    18.1035    -1.3640 H       
  57 H57            9.7805    18.5317    -2.4186 H       
  58 H58            8.5316    17.6812    -4.3846 H       
  59 H59            7.1631    17.2530    -3.3300 H       
  60 H60            6.9277    19.6314    -2.6697 H       
  61 H61            8.2962    20.0596    -3.7243 H       
  62 H62            7.0473    19.2090    -5.6903 H       
  63 H63            5.6788    18.7808    -4.6358 H       
  64 H64            5.4434    21.1593    -3.9754 H       
  65 H65            6.8119    21.5875    -5.0300 H       
  66 H66            5.5630    20.7369    -6.9961 H       
  67 H67            4.1945    20.3087    -5.9415 H       
  68 H68            3.8169    22.4969    -7.0452 H       
  69 H69            3.9592    22.6872    -5.2811 H       
  70 H70            5.3277    23.1154    -6.3357 H       
  71 H71            9.8079     7.8930    -0.9152 H       
  72 H72            9.4114     7.9337     0.8196 H       
  73 H73            7.5428     7.0150    -1.4123 H       
  74 H74            7.1463     7.0557     0.3225 H       
@<TRIPOS>BOND
   1    1    2 ar
   2    1    6 ar
   3    1   32 1
   4    2    3 ar
   5    2   13 1
   6    3    4 ar
   7    3   14 1
   8    4    5 ar
   9    4   33 1
  10    5    6 ar
  11    5    7 1
  12    6   34 1
  13    7    8 2
  14    7   35 1
  15    8    9 1
  16    8   36 1
  17    9   10 am
  18    9   11 2
  19   10   12 1
  20   10   37 1
  21   12   31 1
  22   12   38 1
  23   12   39 1
  24   13   40 1
  25   14   41 1
  26   15   16 1
  27   15   30 1
  28   15   42 1
  29   15   43 1
  30   16   17 1
  31   16   44 1
  32   16   45 1
  33   17   18 1
  34   17   46 1
  35   17   47 1
  36   18   19 1
  37   18   48 1
  38   18   49 1
  39   19   20 1
  40   19   50 1
  41   19   51 1
  42   20   21 2
  43   20   52 1
  44   21   22 1
  45   21   53 1
  46   22   23 1
  47   22   54 1
  48   22   55 1
  49   23   24 1
  50   23   56 1
  51   23   57 1
  52   24   25 1
  53   24   58 1
  54   24   59 1
  55   25   26 1
  56   25   60 1
  57   25   61 1
  58   26   27 1
  59   26   62 1
  60   26   63 1
  61   27   28 1
  62   27   64 1
  63   27   65 1
  64   28   29 1
  65   28   66 1
  66   28   67 1
  67   29   68 1
  68   29   69 1
  69   29   70 1
  70   30   31 1
  71   30   71 1
  72   30   72 1
  73   31   73 1
  74   31   74 1

#	End of record

