#	Name: ASD09890083
#	Creating user name:	WinNT
#	Creation time:	15. 06. 2019 21:24

#	Modifying user name:	WinNT
#	Modification time:	15. 06. 2019 21:24

#	Program:	/corina/corina34_cracker 3.40 0067  02.08.2006

@<TRIPOS>MOLECULE
ASD09890083
  42   45    0    0    0
SMALL
NO_CHARGES


@<TRIPOS>ATOM
   1 C1            -0.0176     1.3671     0.0633 C.2     
   2 N2            -0.0054    -0.0002     0.0335 N.pl3   
   3 C3            -1.2996    -0.4352     0.1162 C.2     
   4 N4            -2.0759     0.6192     0.1936 N.2     
   5 N5            -1.2621     1.7592     0.1652 N.2     
   6 S6            -1.8303    -2.1154     0.1179 S.3     
   7 C7            -3.6339    -1.9736     0.2492 C.3     
   8 C8             1.1336    -0.8132    -0.0645 C.ar    
   9 C9             2.0773    -0.8327     0.9584 C.ar    
  10 C10            3.1858    -1.6517     0.8159 C.ar    
  11 C11            3.3173    -2.4165    -0.3279 C.ar    
  12 N12            2.4049    -2.3748    -1.2793 N.ar    
  13 C13            1.3331    -1.6143    -1.1805 C.ar    
  14 C14           -4.2815    -3.3651     0.1391 C.3     
  15 C15           -5.0392    -3.6044     1.4614 C.3     
  16 C16           -5.3164    -2.1802     2.0035 C.3     
  17 C17           -4.0207    -1.4159     1.6346 C.3     
  18 O18            1.0702     2.1752     0.0035 O.3     
  19 C19            0.8650     3.5152    -0.0919 C.ar    
  20 C20           -0.4175     4.0098    -0.2838 C.ar    
  21 C21            1.9364     4.3906     0.0080 C.ar    
  22 C22            1.7253     5.7536    -0.0894 C.ar    
  23 C23            0.4455     6.2441    -0.2861 C.ar    
  24 C24           -0.6246     5.3719    -0.3806 C.ar    
  25 Cl25           3.0653     6.8503     0.0354 Cl      
  26 Cl26           0.1821     7.9558    -0.4071 Cl      
  27 H27           -4.0150    -1.3211    -0.5364 H       
  28 H28            1.9489    -0.2241     1.8413 H       
  29 H29            3.9384    -1.6919     1.5894 H       
  30 H30            4.1793    -3.0567    -0.4443 H       
  31 H31            0.6076    -1.6066    -1.9805 H       
  32 H32           -4.9775    -3.3877    -0.6995 H       
  33 H33           -3.5120    -4.1256     0.0067 H       
  34 H34           -5.9754    -4.1305     1.2747 H       
  35 H35           -4.4185    -4.1647     2.1606 H       
  36 H36           -6.1801    -1.7389     1.5062 H       
  37 H37           -5.4593    -2.1992     3.0839 H       
  38 H38           -3.2356    -1.6227     2.3618 H       
  39 H39           -4.2137    -0.3448     1.5744 H       
  40 H40           -1.2532     3.3297    -0.3577 H       
  41 H41            2.9345     4.0079     0.1621 H       
  42 H42           -1.6220     5.7564    -0.5344 H       
@<TRIPOS>BOND
   1    1    2 1
   2    1   18 1
   3    1    5 2
   4    2    3 1
   5    2    8 1
   6    3    4 2
   7    3    6 1
   8    4    5 1
   9    6    7 1
  10    7   14 1
  11    7   17 1
  12    7   27 1
  13    8    9 ar
  14    8   13 ar
  15    9   10 ar
  16    9   28 1
  17   10   11 ar
  18   10   29 1
  19   11   12 ar
  20   11   30 1
  21   12   13 ar
  22   13   31 1
  23   14   15 1
  24   14   32 1
  25   14   33 1
  26   15   16 1
  27   15   34 1
  28   15   35 1
  29   16   17 1
  30   16   36 1
  31   16   37 1
  32   17   38 1
  33   17   39 1
  34   18   19 1
  35   19   20 ar
  36   19   21 ar
  37   20   24 ar
  38   20   40 1
  39   21   22 ar
  40   21   41 1
  41   22   23 ar
  42   22   25 1
  43   23   24 ar
  44   23   26 1
  45   24   42 1

#	End of record

