#	Name: ASD04230185
#	Creating user name:	WinNT
#	Creation time:	15. 06. 2019 20:48

#	Modifying user name:	WinNT
#	Modification time:	15. 06. 2019 20:48

#	Program:	/corina/corina34_cracker 3.40 0067  02.08.2006

@<TRIPOS>MOLECULE
ASD04230185
  48   51    0    0    0
SMALL
NO_CHARGES


@<TRIPOS>ATOM
   1 C1             0.0768     1.3677     0.8496 C.2     
   2 C2             0.0735    -0.0869     0.6274 C.ar    
   3 C3            -1.1611    -0.7665     0.5529 C.ar    
   4 C4            -2.3782    -0.0590     0.6895 C.ar    
   5 C5            -2.3661     1.3409     0.9027 C.2     
   6 C6            -1.1617     2.0443     0.9879 C.2     
   7 C7             1.2600    -0.8001     0.4908 C.ar    
   8 C8             1.2304    -2.1695     0.2823 C.ar    
   9 C9             0.0349    -2.8512     0.2065 C.ar    
  10 C10           -1.1769    -2.1624     0.3400 C.ar    
  11 C11           -2.4208    -2.8363     0.2660 C.ar    
  12 C12           -3.6034    -2.1187     0.4030 C.ar    
  13 C13           -3.5899    -0.7569     0.6111 C.ar    
  14 O14            1.1290     1.9814     0.9187 O.2     
  15 S15           -2.4688    -4.5776     0.0009 S.3     
  16 C16           -4.1994    -4.8647     0.1663 C.ar    
  17 C17           -5.0157    -4.8670    -0.9584 C.ar    
  18 C18           -6.3714    -5.0923    -0.8249 C.ar    
  19 C19           -6.9172    -5.3155     0.4262 C.ar    
  20 C20           -6.1079    -5.3135     1.5477 C.ar    
  21 C21           -4.7503    -5.0951     1.4212 C.ar    
  22 C22           -1.1786     3.4597     1.2045 C.1     
  23 N23           -1.1919     4.5825     1.3762 N.1     
  24 N24           -3.5560     2.0166     1.0338 N.3     
  25 C25           -3.6411     2.6846     2.3394 C.3     
  26 C26           -4.9760     3.4242     2.4479 C.3     
  27 C27           -5.0646     4.1198     3.8078 C.3     
  28 C28           -6.3995     4.8594     3.9163 C.3     
  29 H29            2.2073    -0.2847     0.5471 H       
  30 H30            2.1587    -2.7113     0.1772 H       
  31 H31            0.0327    -3.9187     0.0430 H       
  32 H32           -4.5488    -2.6376     0.3454 H       
  33 H33           -4.5226    -0.2225     0.7148 H       
  34 H34           -4.5903    -4.6924    -1.9356 H       
  35 H35           -7.0065    -5.0939    -1.6985 H       
  36 H36           -7.9779    -5.4915     0.5276 H       
  37 H37           -6.5375    -5.4875     2.5232 H       
  38 H38           -4.1189    -5.0936     2.2974 H       
  39 H39           -3.6819     2.6767     0.2811 H       
  40 H40           -3.5722     1.9408     3.1332 H       
  41 H41           -2.8220     3.3970     2.4371 H       
  42 H42           -5.0449     4.1680     1.6541 H       
  43 H43           -5.7951     2.7117     2.3503 H       
  44 H44           -4.9957     3.3760     4.6016 H       
  45 H45           -4.2455     4.8323     3.9054 H       
  46 H46           -6.4684     5.6032     3.1225 H       
  47 H47           -7.2186     4.1469     3.8186 H       
  48 H48           -6.4626     5.3550     4.8850 H       
@<TRIPOS>BOND
   1    1    2 1
   2    1   14 2
   3    1    6 1
   4    2    3 ar
   5    2    7 ar
   6    3    4 ar
   7    3   10 ar
   8    4    5 1
   9    4   13 ar
  10    5    6 2
  11    5   24 1
  12    6   22 1
  13    7    8 ar
  14    7   29 1
  15    8    9 ar
  16    8   30 1
  17    9   10 ar
  18    9   31 1
  19   10   11 ar
  20   11   12 ar
  21   11   15 1
  22   12   13 ar
  23   12   32 1
  24   13   33 1
  25   15   16 1
  26   16   17 ar
  27   16   21 ar
  28   17   18 ar
  29   17   34 1
  30   18   19 ar
  31   18   35 1
  32   19   20 ar
  33   19   36 1
  34   20   21 ar
  35   20   37 1
  36   21   38 1
  37   22   23 3
  38   24   25 1
  39   24   39 1
  40   25   26 1
  41   25   40 1
  42   25   41 1
  43   26   27 1
  44   26   42 1
  45   26   43 1
  46   27   28 1
  47   27   44 1
  48   27   45 1
  49   28   46 1
  50   28   47 1
  51   28   48 1

#	End of record

