#	Name: ASD02198470
#	Creating user name:	WinNT
#	Creation time:	15. 06. 2019 20:19

#	Modifying user name:	WinNT
#	Modification time:	15. 06. 2019 20:19

#	Program:	/corina/corina34_cracker 3.40 0067  02.08.2006

@<TRIPOS>MOLECULE
ASD02198470
  44   47    0    0    0
SMALL
NO_CHARGES


@<TRIPOS>ATOM
   1 C1            -0.2567     1.4402     0.2157 C.2     
   2 C2            -0.2079     0.0981     0.0233 C.2     
   3 N3             0.9768    -0.5411    -0.1062 N.pl3   
   4 N4             2.1090     0.0581    -0.0585 N.2     
   5 C5             2.2049     1.3575     0.1226 C.2     
   6 C6             0.9701     2.1442     0.2752 C.2     
   7 C7             0.9662    -1.9261    -0.3018 C.ar    
   8 C8            -0.2315    -4.0016    -0.3949 C.ar    
   9 C9             0.9452    -4.6658    -0.6886 C.ar    
  10 C10            2.1336    -3.9646    -0.7838 C.ar    
  11 C11            2.1477    -2.5974    -0.5914 C.ar    
  12 C12            3.5268     2.0146     0.1728 C.2     
  13 N13            4.6536     1.5271     0.7729 N.pl3   
  14 N14            5.6773     2.4638     0.5832 N.2     
  15 C15            5.2016     3.4749    -0.0992 C.2     
  16 C16            3.8575     3.2316    -0.3818 C.2     
  17 C17            4.7646     0.3094     1.4560 C.ar    
  18 C18            5.8188    -0.5510     1.1777 C.ar    
  19 O19            1.0025     3.3538     0.4456 O.2     
  20 C20           -0.2246    -2.6341    -0.2012 C.ar    
  21 C21            3.8243    -0.0376     2.4168 C.ar    
  22 C22            3.9365    -1.2393     3.0887 C.ar    
  23 C23            4.9839    -2.0962     2.8053 C.ar    
  24 C24            5.9254    -1.7509     1.8529 C.ar    
  25 C25            6.8449    -0.1758     0.1397 C.3     
  26 C26           -1.5239    -4.7698    -0.2922 C.3     
  27 F27           -1.2804    -6.1264    -0.5320 F       
  28 F28           -2.0597    -4.6118     0.9904 F       
  29 F29           -2.4315    -4.2844    -1.2398 F       
  30 H30           -1.2007     1.9552     0.3156 H       
  31 H31           -1.1269    -0.4671    -0.0266 H       
  32 H32            0.9363    -5.7346    -0.8437 H       
  33 H33            3.0510    -4.4865    -1.0130 H       
  34 H34            3.0759    -2.0504    -0.6662 H       
  35 H35            5.7587     4.3509    -0.3969 H       
  36 H36            3.1938     3.8831    -0.9308 H       
  37 H37           -1.1439    -2.1160     0.0285 H       
  38 H38            3.0061     0.6315     2.6388 H       
  39 H39            3.2056    -1.5096     3.8364 H       
  40 H40            5.0697    -3.0350     3.3322 H       
  41 H41            6.7422    -2.4226     1.6335 H       
  42 H42            7.6874     0.3182     0.6237 H       
  43 H43            7.1937    -1.0750    -0.3680 H       
  44 H44            6.3956     0.5008    -0.5872 H       
@<TRIPOS>BOND
   1    1    2 2
   2    1    6 1
   3    1   30 1
   4    2    3 1
   5    2   31 1
   6    3    4 1
   7    3    7 1
   8    4    5 2
   9    5    6 1
  10    5   12 1
  11    6   19 2
  12    7   20 ar
  13    7   11 ar
  14    8    9 ar
  15    8   26 1
  16    8   20 ar
  17    9   10 ar
  18    9   32 1
  19   10   11 ar
  20   10   33 1
  21   11   34 1
  22   12   13 1
  23   12   16 2
  24   13   14 1
  25   13   17 1
  26   14   15 2
  27   15   16 1
  28   15   35 1
  29   16   36 1
  30   17   21 ar
  31   17   18 ar
  32   18   25 1
  33   18   24 ar
  34   20   37 1
  35   21   22 ar
  36   21   38 1
  37   22   23 ar
  38   22   39 1
  39   23   24 ar
  40   23   40 1
  41   24   41 1
  42   25   42 1
  43   25   43 1
  44   25   44 1
  45   26   27 1
  46   26   28 1
  47   26   29 1

#	End of record

