#	Name: ASD01883334
#	Creating user name:	WinNT
#	Creation time:	15. 06. 2019 19:46

#	Modifying user name:	WinNT
#	Modification time:	15. 06. 2019 19:46

#	Program:	/corina/corina34_cracker 3.40 0067  02.08.2006

@<TRIPOS>MOLECULE
ASD01883334
  46   48    0    0    0
SMALL
NO_CHARGES


@<TRIPOS>ATOM
   1 N1             0.1863     0.9208     0.1624 N.am    
   2 C2             0.0522    -0.4043    -0.0327 C.2     
   3 C3            -1.2391    -0.9829    -0.0826 C.2     
   4 C4            -2.3569    -0.1512     0.0741 C.2     
   5 C5            -2.1538     1.2239     0.2747 C.2     
   6 C6            -0.8977     1.7229     0.3194 C.2     
   7 O7             1.0410    -1.1051    -0.1665 O.2     
   8 C8            -1.4004    -2.3906    -0.2897 C.1     
   9 N9            -1.5284    -3.5074    -0.4540 N.1     
  10 O10           -3.6076    -0.6636     0.0325 O.3     
  11 C11           -4.3747    -0.6012     1.2366 C.3     
  12 C12            1.5277     1.5077     0.2121 C.3     
  13 C13            1.9539     1.9260    -1.1965 C.3     
  14 C14            3.3548     2.5389    -1.1445 C.3     
  15 C15            4.3633     1.4707    -0.7169 C.3     
  16 C16            3.7308     3.0701    -2.5292 C.3     
  17 C17           -5.8854    -0.5592     0.9231 C.3     
  18 C18           -6.5424    -1.3511     2.0333 C.ar    
  19 C19           -5.5969    -2.1279     2.6759 C.ar    
  20 C20           -4.2397    -1.9112     2.0416 C.3     
  21 C21           -7.8633    -1.3893     2.4480 C.ar    
  22 C22           -8.2381    -2.2009     3.5006 C.ar    
  23 C23           -7.2923    -2.9779     4.1434 C.ar    
  24 C24           -5.9746    -2.9409     3.7316 C.ar    
  25 H25           -3.0009     1.8824     0.3973 H       
  26 H26           -0.7542     2.7820     0.4745 H       
  27 H27           -4.0796     0.2588     1.8378 H       
  28 H28            1.5179     2.3817     0.8634 H       
  29 H29            2.2318     0.7723     0.6015 H       
  30 H30            1.9637     1.0520    -1.8477 H       
  31 H31            1.2498     2.6613    -1.5858 H       
  32 H32            3.3665     3.3582    -0.4256 H       
  33 H33            4.3516     0.6515    -1.4358 H       
  34 H34            5.3613     1.9074    -0.6799 H       
  35 H35            4.0955     1.0923     0.2696 H       
  36 H36            3.0123     3.8311    -2.8338 H       
  37 H37            4.7288     3.5067    -2.4922 H       
  38 H38            3.7191     2.2508    -3.2481 H       
  39 H39           -6.2444     0.4700     0.9291 H       
  40 H40           -6.0844    -1.0244    -0.0423 H       
  41 H41           -3.9961    -2.7401     1.3770 H       
  42 H42           -3.4752    -1.8051     2.8112 H       
  43 H43           -8.6027    -0.7826     1.9464 H       
  44 H44           -9.2689    -2.2284     3.8216 H       
  45 H45           -7.5836    -3.6131     4.9668 H       
  46 H46           -5.2364    -3.5481     4.2342 H       
@<TRIPOS>BOND
   1    1    2 am
   2    1   12 1
   3    1    6 1
   4    2    3 1
   5    2    7 2
   6    3    4 2
   7    3    8 1
   8    4    5 1
   9    4   10 1
  10    5    6 2
  11    5   25 1
  12    6   26 1
  13    8    9 3
  14   10   11 1
  15   11   17 1
  16   11   20 1
  17   11   27 1
  18   12   13 1
  19   12   28 1
  20   12   29 1
  21   13   14 1
  22   13   30 1
  23   13   31 1
  24   14   15 1
  25   14   16 1
  26   14   32 1
  27   15   33 1
  28   15   34 1
  29   15   35 1
  30   16   36 1
  31   16   37 1
  32   16   38 1
  33   17   18 1
  34   17   39 1
  35   17   40 1
  36   18   19 ar
  37   18   21 ar
  38   19   20 1
  39   19   24 ar
  40   20   41 1
  41   20   42 1
  42   21   22 ar
  43   21   43 1
  44   22   23 ar
  45   22   44 1
  46   23   24 ar
  47   23   45 1
  48   24   46 1

#	End of record

