#	Name: ASD01410137
#	Creating user name:	WinNT
#	Creation time:	15. 06. 2019 19:16

#	Modifying user name:	WinNT
#	Modification time:	15. 06. 2019 19:16

#	Program:	/corina/corina34_cracker 3.40 0067  02.08.2006

@<TRIPOS>MOLECULE
ASD01410137
  72   77    0    0    0
SMALL
NO_CHARGES


@<TRIPOS>ATOM
   1 C1            -0.2570     1.2472    -0.1671 C.ar    
   2 C2            -0.1628    -0.0793     0.2942 C.ar    
   3 C3            -1.3140    -0.7939     0.6047 C.ar    
   4 C4            -2.5410    -0.2130     0.4635 C.ar    
   5 C5            -2.6539     1.1062     0.0052 C.ar    
   6 C6            -1.5126     1.8392    -0.3053 C.ar    
   7 N7             1.0081     1.6863    -0.3862 N.2     
   8 C8             1.8597     0.7332    -0.0949 C.2     
   9 N9             1.1833    -0.3791     0.3305 N.pl3   
  10 C10           -3.9877     1.7222    -0.1439 C.2     
  11 N11           -5.0942     1.0155     0.1606 N.am    
  12 C12           -6.4175     1.6266     0.0126 C.3     
  13 C13            3.3288     0.8423    -0.2090 C.2     
  14 C14            4.2790    -0.2398    -0.4989 C.2     
  15 C15            5.4957     0.3280    -0.5048 C.2     
  16 O16            5.3691     1.6390    -0.2480 O.3     
  17 C17            4.0828     1.9679    -0.0733 C.2     
  18 C18            1.7788    -1.6512     0.7470 C.3     
  19 C19            1.4344    -1.9197     2.2134 C.3     
  20 C20            2.0563    -3.2482     2.6483 C.3     
  21 C21            1.5028    -4.3792     1.7791 C.3     
  22 C22            1.8472    -4.1107     0.3128 C.3     
  23 C23            1.2253    -2.7821    -0.1222 C.3     
  24 O24           -4.0877     2.8668    -0.5414 O.2     
  25 C25           -7.4648     0.5309    -0.1961 C.3     
  26 C26           -6.7509     2.4099     1.2560 C.2     
  27 O27           -5.9610     2.4535     2.1754 O.2     
  28 N28           -7.9269     3.0621     1.3465 N.am    
  29 C29           -7.2022    -0.1727    -1.5026 C.ar    
  30 C30           -6.3739    -1.2793    -1.5363 C.ar    
  31 C31           -6.1316    -1.9260    -2.7327 C.ar    
  32 C32           -6.7202    -1.4643    -3.9011 C.ar    
  33 C33           -7.5509    -0.3538    -3.8646 C.ar    
  34 C34           -7.7945     0.2860    -2.6647 C.ar    
  35 O35           -6.4831    -2.0986    -5.0794 O.3     
  36 C36           -8.2805     3.7051     2.5382 C.ar    
  37 C37           -7.3085     4.3154     3.3273 C.ar    
  38 C38           -7.7075     4.9390     4.4978 C.ar    
  39 C39           -9.0467     4.9357     4.8422 C.ar    
  40 N40           -9.9425     4.3484     4.0732 N.ar    
  41 C41           -9.6063     3.7491     2.9483 C.ar    
  42 H42           -1.2373    -1.8115     0.9583 H       
  43 H43           -3.4312    -0.7744     0.7063 H       
  44 H44           -1.5986     2.8562    -0.6582 H       
  45 H45           -5.0145     0.1022     0.4777 H       
  46 H46           -6.4147     2.2952    -0.8482 H       
  47 H47            4.0464    -1.2801    -0.6720 H       
  48 H48            6.4270    -0.1878    -0.6867 H       
  49 H49            3.7078     2.9569     0.1450 H       
  50 H50            2.8614    -1.6007     0.6314 H       
  51 H51            1.8287    -1.1139     2.8326 H       
  52 H52            0.3517    -1.9702     2.3289 H       
  53 H53            3.1389    -3.1977     2.5327 H       
  54 H54            1.8109    -3.4395     3.6930 H       
  55 H55            1.9458    -5.3256     2.0890 H       
  56 H56            0.4201    -4.4297     1.8947 H       
  57 H57            2.9298    -4.0602     0.1972 H       
  58 H58            1.4529    -4.9164    -0.3065 H       
  59 H59            0.1426    -2.8327    -0.0066 H       
  60 H60            1.4706    -2.5909    -1.1668 H       
  61 H61           -7.4068    -0.1876     0.6215 H       
  62 H62           -8.4588     0.9777    -0.2174 H       
  63 H63           -8.5281     3.0858     0.5857 H       
  64 H64           -5.9157    -1.6381    -0.6265 H       
  65 H65           -5.4843    -2.7901    -2.7586 H       
  66 H66           -8.0103     0.0075    -4.7728 H       
  67 H67           -8.4411     1.1506    -2.6358 H       
  68 H68           -7.1101    -2.8076    -5.2776 H       
  69 H69           -6.2692     4.3022     3.0339 H       
  70 H70           -6.9811     5.4221     5.1344 H       
  71 H71           -9.3633     5.4205     5.7538 H       
  72 H72          -10.3685     3.2791     2.3445 H       
@<TRIPOS>BOND
   1    1    2 ar
   2    1    7 1
   3    1    6 ar
   4    2    3 ar
   5    2    9 1
   6    3    4 ar
   7    3   42 1
   8    4    5 ar
   9    4   43 1
  10    5    6 ar
  11    5   10 1
  12    6   44 1
  13    7    8 2
  14    8    9 1
  15    8   13 1
  16    9   18 1
  17   10   11 am
  18   10   24 2
  19   11   12 1
  20   11   45 1
  21   12   25 1
  22   12   26 1
  23   12   46 1
  24   13   14 1
  25   13   17 2
  26   14   15 2
  27   14   47 1
  28   15   16 1
  29   15   48 1
  30   16   17 1
  31   17   49 1
  32   18   19 1
  33   18   23 1
  34   18   50 1
  35   19   20 1
  36   19   51 1
  37   19   52 1
  38   20   21 1
  39   20   53 1
  40   20   54 1
  41   21   22 1
  42   21   55 1
  43   21   56 1
  44   22   23 1
  45   22   57 1
  46   22   58 1
  47   23   59 1
  48   23   60 1
  49   25   29 1
  50   25   61 1
  51   25   62 1
  52   26   27 2
  53   26   28 am
  54   28   36 1
  55   28   63 1
  56   29   30 ar
  57   29   34 ar
  58   30   31 ar
  59   30   64 1
  60   31   32 ar
  61   31   65 1
  62   32   33 ar
  63   32   35 1
  64   33   34 ar
  65   33   66 1
  66   34   67 1
  67   35   68 1
  68   36   37 ar
  69   36   41 ar
  70   37   38 ar
  71   37   69 1
  72   38   39 ar
  73   38   70 1
  74   39   40 ar
  75   39   71 1
  76   40   41 ar
  77   41   72 1

#	End of record

