#	Name: ASD05490056
#	Creating user name:	WinNT
#	Creation time:	15. 06. 2019 21:01

#	Modifying user name:	WinNT
#	Modification time:	15. 06. 2019 21:01

#	Program:	/corina/corina34_cracker 3.40 0067  02.08.2006

@<TRIPOS>MOLECULE
ASD05490056
  37   39    0    0    0
SMALL
NO_CHARGES


@<TRIPOS>ATOM
   1 N1            -0.0166     1.3709     0.0096 N.pl3   
   2 O2            -1.5685    -3.1666    -0.0012 O.3     
   3 N3             0.6747    -2.6247    -0.0185 N.ar    
   4 C4             1.6700    -1.7440    -0.0233 C.ar    
   5 C5            -0.5897    -2.2292    -0.0050 C.ar    
   6 N6            -0.9295    -0.9520     0.0054 N.ar    
   7 C7             0.0021    -0.0041     0.0020 C.ar    
   8 C8             1.3557    -0.3756    -0.0129 C.ar    
   9 N9             2.9889    -2.1669    -0.0377 N.pl3   
  10 C10            1.2818     1.7983    -0.0005 C.2     
  11 N11            2.0871     0.7689    -0.0137 N.2     
  12 C12           -1.1564    -4.5349    -0.0120 C.3     
  13 C13           -2.3904    -5.4393    -0.0057 C.3     
  14 C14           -1.9549    -6.9014    -0.1431 C.3     
  15 C15           -3.1888    -7.8035    -0.0567 C.3     
  16 O16           -3.8626    -7.5695     1.1816 O.3     
  17 C17           -4.3343    -6.2305     1.3452 C.3     
  18 C18           -3.1465    -5.2652     1.3151 C.3     
  19 O19            1.6747     3.0937     0.0027 O.3     
  20 C20            3.0814     3.3450    -0.0089 C.3     
  21 H21           -0.8062     1.9342     0.0165 H       
  22 H22            3.1941    -3.1149    -0.0444 H       
  23 H23            3.7072    -1.5151    -0.0410 H       
  24 H24           -0.5676    -4.7299    -0.9084 H       
  25 H25           -0.5516    -4.7392     0.8715 H       
  26 H26           -3.0419    -5.1731    -0.8381 H       
  27 H27           -1.4643    -7.0464    -1.1056 H       
  28 H28           -1.2631    -7.1525     0.6609 H       
  29 H29           -3.8615    -7.5796    -0.8845 H       
  30 H30           -2.8802    -8.8476    -0.1109 H       
  31 H31           -5.0221    -5.9860     0.5356 H       
  32 H32           -4.8511    -6.1414     2.3007 H       
  33 H33           -2.4787    -5.4832     2.1485 H       
  34 H34           -3.5081    -4.2401     1.3954 H       
  35 H35            3.2584     4.4205    -0.0048 H       
  36 H36            3.5375     2.8984     0.8747 H       
  37 H37            3.5213     2.9077    -0.9052 H       
@<TRIPOS>BOND
   1    1    7 1
   2    1   10 1
   3    1   21 1
   4    2   12 1
   5    2    5 1
   6    3    4 ar
   7    3    5 ar
   8    4    9 1
   9    4    8 ar
  10    5    6 ar
  11    6    7 ar
  12    7    8 ar
  13    8   11 1
  14    9   22 1
  15    9   23 1
  16   10   11 2
  17   10   19 1
  18   12   13 1
  19   12   24 1
  20   12   25 1
  21   13   14 1
  22   13   18 1
  23   13   26 1
  24   14   15 1
  25   14   27 1
  26   14   28 1
  27   15   16 1
  28   15   29 1
  29   15   30 1
  30   16   17 1
  31   17   18 1
  32   17   31 1
  33   17   32 1
  34   18   33 1
  35   18   34 1
  36   19   20 1
  37   20   35 1
  38   20   36 1
  39   20   37 1

#	End of record

