#	Name: ASD01811715
#	Creating user name:	WinNT
#	Creation time:	15. 06. 2019 19:27

#	Modifying user name:	WinNT
#	Modification time:	15. 06. 2019 19:27

#	Program:	/corina/corina34_cracker 3.40 0067  02.08.2006

@<TRIPOS>MOLECULE
ASD01811715
  56   60    0    0    0
SMALL
NO_CHARGES


@<TRIPOS>ATOM
   1 C1            -0.0167     1.3805     0.0096 C.ar    
   2 C2             0.0021    -0.0041     0.0020 C.ar    
   3 C3             1.2075    -0.6836    -0.0127 C.ar    
   4 C4             2.3988     0.0118    -0.0203 C.ar    
   5 C5             2.3881     1.4079    -0.0132 C.ar    
   6 C6             1.1658     2.0836     0.0021 C.ar    
   7 C7            -1.2939    -0.7731     0.0103 C.3     
   8 C8             1.2188    -2.1905    -0.0199 C.3     
   9 C9             1.0853    -2.6871    -1.4364 C.ar    
  10 C10            2.2154    -2.9084    -2.2105 C.ar    
  11 C11            2.0494    -3.3646    -3.5069 C.ar    
  12 C12            0.7604    -3.5847    -3.9872 C.ar    
  13 N13           -0.2946    -3.3602    -3.2144 N.ar    
  14 C14           -0.1644    -2.9319    -1.9753 C.ar    
  15 C15            0.5657    -4.0735    -5.3741 C.2     
  16 C16           -0.6715    -4.3395    -5.9932 C.2     
  17 C17           -0.4222    -4.7645    -7.2508 C.2     
  18 N18            0.9162    -4.7711    -7.4313 N.pl3   
  19 N19            1.5183    -4.3300    -6.2460 N.2     
  20 C20            1.6165    -5.1662    -8.6558 C.3     
  21 C21            3.4708     2.4102    -0.0183 C.2     
  22 N22            2.9565     3.6521    -0.0072 N.am    
  23 C23            1.4923     3.5561     0.0064 C.3     
  24 C24            3.7301     4.8962    -0.0086 C.3     
  25 C25            4.6096     4.9685    -1.2691 C.3     
  26 C26            6.0720     5.0375    -0.7827 C.3     
  27 C27            6.0325     4.4049     0.6305 C.3     
  28 C28            4.6887     4.9237     1.1998 C.3     
  29 O29            4.6581     2.1501    -0.0300 O.2     
  30 O30            4.2889     6.1391    -2.0233 O.3     
  31 H31           -0.9590     1.9081     0.0170 H       
  32 H32            3.3374    -0.5224    -0.0314 H       
  33 H33           -1.6162    -0.9530    -1.0154 H       
  34 H34           -1.1473    -1.7267     0.5176 H       
  35 H35           -2.0556    -0.1960     0.5345 H       
  36 H36            2.1570    -2.5488     0.4038 H       
  37 H37            0.3854    -2.5629     0.5758 H       
  38 H38            3.2023    -2.7284    -1.8107 H       
  39 H39            2.9072    -3.5470    -4.1372 H       
  40 H40           -1.0460    -2.7601    -1.3756 H       
  41 H41           -1.6460    -4.2244    -5.5422 H       
  42 H42           -1.1631    -5.0491    -7.9833 H       
  43 H43            1.7496    -4.2940    -9.2958 H       
  44 H44            2.5914    -5.5808    -8.3992 H       
  45 H45            1.0296    -5.9179    -9.1836 H       
  46 H46            1.0774     4.0343    -0.8809 H       
  47 H47            1.0945     4.0255     0.9061 H       
  48 H48            3.0586     5.7540     0.0279 H       
  49 H49            4.4609     4.0780    -1.8798 H       
  50 H50            6.7207     4.4598    -1.4412 H       
  51 H51            6.4073     6.0732    -0.7279 H       
  52 H52            6.0306     3.3168     0.5668 H       
  53 H53            6.8692     4.7561     1.2345 H       
  54 H54            4.8006     5.9410     1.5748 H       
  55 H55            4.3279     4.2630     1.9881 H       
  56 H56            4.8104     6.2417    -2.8312 H       
@<TRIPOS>BOND
   1    1    2 ar
   2    1    6 ar
   3    1   31 1
   4    2    3 ar
   5    2    7 1
   6    3    4 ar
   7    3    8 1
   8    4    5 ar
   9    4   32 1
  10    5    6 ar
  11    5   21 1
  12    6   23 1
  13    7   33 1
  14    7   34 1
  15    7   35 1
  16    8    9 1
  17    8   36 1
  18    8   37 1
  19    9   10 ar
  20    9   14 ar
  21   10   11 ar
  22   10   38 1
  23   11   12 ar
  24   11   39 1
  25   12   13 ar
  26   12   15 1
  27   13   14 ar
  28   14   40 1
  29   15   16 1
  30   15   19 2
  31   16   17 2
  32   16   41 1
  33   17   18 1
  34   17   42 1
  35   18   19 1
  36   18   20 1
  37   20   43 1
  38   20   44 1
  39   20   45 1
  40   21   22 am
  41   21   29 2
  42   22   23 1
  43   22   24 1
  44   23   46 1
  45   23   47 1
  46   24   25 1
  47   24   28 1
  48   24   48 1
  49   25   26 1
  50   25   30 1
  51   25   49 1
  52   26   27 1
  53   26   50 1
  54   26   51 1
  55   27   28 1
  56   27   52 1
  57   27   53 1
  58   28   54 1
  59   28   55 1
  60   30   56 1

#	End of record

