#	Name: ASD01320013
#	Creating user name:	WinNT
#	Creation time:	15. 06. 2019 19:15

#	Modifying user name:	WinNT
#	Modification time:	15. 06. 2019 19:15

#	Program:	/corina/corina34_cracker 3.40 0067  02.08.2006

@<TRIPOS>MOLECULE
ASD01320013
  59   62    0    0    0
SMALL
NO_CHARGES


@<TRIPOS>ATOM
   1 C1             0.4885     1.0192    -0.4374 C.ar    
   2 C2             0.3365    -0.3506    -0.5345 C.ar    
   3 C3             1.4427    -1.1805    -0.4438 C.ar    
   4 C4             2.7101    -0.6329    -0.2550 C.ar    
   5 C5             2.8613     0.7421    -0.1582 C.ar    
   6 C6             1.7502     1.5688    -0.2492 C.ar    
   7 O7             1.2913    -2.5288    -0.5387 O.3     
   8 C8             0.0307    -3.0241    -0.6200 C.ar    
   9 C9            -0.6799    -2.9154    -1.8091 C.ar    
  10 C10           -1.9713    -3.4222    -1.8940 C.ar    
  11 C11           -2.5514    -4.0441    -0.7705 C.ar    
  12 C12           -1.8251    -4.1452     0.4153 C.ar    
  13 C13           -0.5422    -3.6431     0.4849 C.ar    
  14 N14            3.8288    -1.4696    -0.1627 N.am    
  15 C15            4.9305    -1.0520     0.4918 C.2     
  16 C16            6.1549    -1.8801     0.4812 C.ar    
  17 O17            4.9173     0.0057     1.0910 O.2     
  18 C18            7.2975    -1.4506     1.1580 C.ar    
  19 C19            8.4369    -2.2286     1.1444 C.ar    
  20 C20            8.4486    -3.4317     0.4617 C.ar    
  21 C21            7.3193    -3.8632    -0.2118 C.ar    
  22 C22            6.1717    -3.0981    -0.2011 C.ar    
  23 N23            1.9012     2.9572    -0.1521 N.am    
  24 C24            0.8756     3.7181     0.2786 C.2     
  25 O25           -0.1437     3.1926     0.6820 O.2     
  26 C26            0.9901     5.1914     0.2605 C.ar    
  27 C27           -0.0706     5.9825     0.7060 C.ar    
  28 C28            0.0425     7.3569     0.6865 C.ar    
  29 C29            1.2043     7.9523     0.2261 C.ar    
  30 C30            2.2595     7.1735    -0.2175 C.ar    
  31 C31            2.1614     5.7980    -0.1968 C.ar    
  32 I32            1.3663    10.0409     0.1997 I       
  33 C33           -2.7326    -3.3091    -3.1566 C.2     
  34 O34           -3.1974    -4.3034    -3.6766 O.2     
  35 O35           -2.9107    -2.1033    -3.7300 O.3     
  36 N36            9.6495    -1.7747     1.8616 N.pl3   
  37 O37            9.6408    -0.7155     2.4628 O.2     
  38 O38           10.6561    -2.4605     1.8505 O.2     
  39 C39           -3.9220    -4.5856    -0.8484 C.2     
  40 O40           -4.5899    -4.4066    -1.8473 O.2     
  41 O41           -4.4326    -5.2786     0.1882 O.3     
  42 H42           -0.3747     1.6640    -0.5125 H       
  43 H43           -0.6457    -0.7752    -0.6808 H       
  44 H44            3.8425     1.1692    -0.0118 H       
  45 H45           -0.2294    -2.4372    -2.6664 H       
  46 H46           -2.2658    -4.6210     1.2789 H       
  47 H47            0.0170    -3.7239     1.4053 H       
  48 H48            3.8110    -2.3499    -0.5698 H       
  49 H49            7.2899    -0.5112     1.6907 H       
  50 H50            9.3431    -4.0368     0.4539 H       
  51 H51            7.3351    -4.8033    -0.7432 H       
  52 H52            5.2910    -3.4359    -0.7270 H       
  53 H53            2.7440     3.3715    -0.3948 H       
  54 H54           -0.9778     5.5191     1.0648 H       
  55 H55           -0.7773     7.9699     1.0309 H       
  56 H56            3.1630     7.6441    -0.5762 H       
  57 H57            2.9853     5.1914    -0.5430 H       
  58 H58           -3.4152    -2.0795    -4.5546 H       
  59 H59           -5.3344    -5.6136     0.0907 H       
@<TRIPOS>BOND
   1    1    2 ar
   2    1    6 ar
   3    1   42 1
   4    2    3 ar
   5    2   43 1
   6    3    4 ar
   7    3    7 1
   8    4    5 ar
   9    4   14 1
  10    5    6 ar
  11    5   44 1
  12    6   23 1
  13    7    8 1
  14    8    9 ar
  15    8   13 ar
  16    9   10 ar
  17    9   45 1
  18   10   11 ar
  19   10   33 1
  20   11   12 ar
  21   11   39 1
  22   12   13 ar
  23   12   46 1
  24   13   47 1
  25   14   15 am
  26   14   48 1
  27   15   16 1
  28   15   17 2
  29   16   18 ar
  30   16   22 ar
  31   18   19 ar
  32   18   49 1
  33   19   20 ar
  34   19   36 1
  35   20   21 ar
  36   20   50 1
  37   21   22 ar
  38   21   51 1
  39   22   52 1
  40   23   24 am
  41   23   53 1
  42   24   25 2
  43   24   26 1
  44   26   27 ar
  45   26   31 ar
  46   27   28 ar
  47   27   54 1
  48   28   29 ar
  49   28   55 1
  50   29   30 ar
  51   29   32 1
  52   30   31 ar
  53   30   56 1
  54   31   57 1
  55   33   34 2
  56   33   35 1
  57   35   58 1
  58   36   37 2
  59   36   38 2
  60   39   40 2
  61   39   41 1
  62   41   59 1

#	End of record

