#	Name: ASD09890121
#	Creating user name:	WinNT
#	Creation time:	15. 06. 2019 21:24

#	Modifying user name:	WinNT
#	Modification time:	15. 06. 2019 21:24

#	Program:	/corina/corina34_cracker 3.40 0067  02.08.2006

@<TRIPOS>MOLECULE
ASD09890121
  43   45    0    0    0
SMALL
NO_CHARGES


@<TRIPOS>ATOM
   1 C1             0.1253     1.3796     0.1471 C.ar    
   2 C2             0.3059     0.0131     0.3706 C.ar    
   3 C3             2.7016     0.3111     0.2462 C.ar    
   4 C4             2.5134     1.6569     0.0271 C.ar    
   5 C5             1.2282     2.1949    -0.0235 C.ar    
   6 C6            -0.6084    -1.1110     0.5871 C.2     
   7 C7             0.1486    -2.2079     0.7476 C.2     
   8 N8             1.4730    -1.8789     0.6517 N.pl3   
   9 C9             1.6040    -0.5258     0.4209 C.ar    
  10 C10           -0.3819    -3.5962     0.9966 C.3     
  11 N11            1.0541     3.5664    -0.2484 N.am    
  12 C12            1.9877     4.2617    -0.9277 C.2     
  13 C13            1.7666     5.6861    -1.2358 C.ar    
  14 C14            1.4232     8.3240    -1.8505 C.ar    
  15 N15            2.4564     7.6654    -2.3385 N.ar    
  16 C16            2.6600     6.3861    -2.0652 C.ar    
  17 C17            0.6603     6.3650    -0.7127 C.ar    
  18 C18            0.4979     7.7016    -1.0320 C.ar    
  19 N19            3.7574     5.7352    -2.5981 N.pl3   
  20 O20            3.0125     3.7139    -1.2864 O.2     
  21 C21           -1.2638     1.9607     0.0862 C.3     
  22 C22           -1.4771     2.8983     1.2762 C.3     
  23 C23           -1.4321     2.7443    -1.2171 C.3     
  24 H24            3.7016    -0.0951     0.2834 H       
  25 H25            3.3691     2.3018    -0.1077 H       
  26 H26           -1.6871    -1.0656     0.6131 H       
  27 H27            2.2100    -2.5041     0.7343 H       
  28 H28           -0.5411    -4.1007     0.0436 H       
  29 H29            0.3383    -4.1594     1.5901 H       
  30 H30           -1.3268    -3.5327     1.5363 H       
  31 H31            0.2616     4.0158     0.0847 H       
  32 H32            1.2944     9.3672    -2.0986 H       
  33 H33           -0.0495     5.8581    -0.0758 H       
  34 H34           -0.3424     8.2561    -0.6410 H       
  35 H35            4.4254     6.2356    -3.0922 H       
  36 H36            3.8592     4.7781    -2.4777 H       
  37 H37           -1.9968     1.1547     0.1227 H       
  38 H38           -0.6817     3.6432     1.2990 H       
  39 H39           -2.4405     3.3985     1.1767 H       
  40 H40           -1.4612     2.3213     2.2008 H       
  41 H41           -1.3629     2.0610    -2.0635 H       
  42 H42           -2.4061     3.2335    -1.2238 H       
  43 H43           -0.6471     3.4968    -1.2925 H       
@<TRIPOS>BOND
   1    1    2 ar
   2    1    5 ar
   3    1   21 1
   4    2    9 ar
   5    2    6 1
   6    3    4 ar
   7    3    9 ar
   8    3   24 1
   9    4    5 ar
  10    4   25 1
  11    5   11 1
  12    6    7 2
  13    6   26 1
  14    7    8 1
  15    7   10 1
  16    8    9 1
  17    8   27 1
  18   10   28 1
  19   10   29 1
  20   10   30 1
  21   11   12 am
  22   11   31 1
  23   12   13 1
  24   12   20 2
  25   13   17 ar
  26   13   16 ar
  27   14   15 ar
  28   14   18 ar
  29   14   32 1
  30   15   16 ar
  31   16   19 1
  32   17   18 ar
  33   17   33 1
  34   18   34 1
  35   19   35 1
  36   19   36 1
  37   21   22 1
  38   21   23 1
  39   21   37 1
  40   22   38 1
  41   22   39 1
  42   22   40 1
  43   23   41 1
  44   23   42 1
  45   23   43 1

#	End of record

