#	Name: ASD02038795
#	Creating user name:	WinNT
#	Creation time:	15. 06. 2019 20:17

#	Modifying user name:	WinNT
#	Modification time:	15. 06. 2019 20:17

#	Program:	/corina/corina34_cracker 3.40 0067  02.08.2006

@<TRIPOS>MOLECULE
ASD02038795
  52   55    0    0    0
SMALL
NO_CHARGES


@<TRIPOS>ATOM
   1 C1            -1.2822    -0.8507     0.4648 C.2     
   2 C2            -0.0603    -0.0341     0.3014 C.2     
   3 N3             1.1370    -0.6350     0.1537 N.am    
   4 C4             1.2418    -2.0930     0.2503 C.3     
   5 C5             1.2141    -2.6914    -1.1325 C.ar    
   6 C6             2.3338     0.1700    -0.1034 C.3     
   7 O7            -0.1358     1.1791     0.3003 O.2     
   8 N8            -1.3381    -2.1947     0.4955 N.2     
   9 C9            -2.5936    -2.5278     0.6549 C.2     
  10 N10           -3.3113    -1.3913     0.7224 N.pl3   
  11 N11           -2.5058    -0.3918     0.6115 N.2     
  12 C12            2.3967    -3.0125    -1.7680 C.ar    
  13 C13            2.1224     1.0142    -1.3640 C.3     
  14 C14            3.3454     1.9092    -1.5803 C.3     
  15 O15            3.5449     2.7280    -0.4262 O.3     
  16 C16            3.7945     1.9937     0.7741 C.3     
  17 C17            2.5895     1.1020     1.0850 C.3     
  18 C18            0.0038    -2.9230    -1.7603 C.ar    
  19 C19           -0.0289    -3.4724    -3.0295 C.ar    
  20 C20            1.1474    -3.7920    -3.6764 C.ar    
  21 C21            2.3697    -3.5655    -3.0464 C.ar    
  22 C22           -4.7632    -1.3051     0.8983 C.3     
  23 C23            3.6379    -3.9067    -3.7371 C.ar    
  24 C24            3.6111    -4.4547    -5.0180 C.ar    
  25 C25            4.7937    -4.7697    -5.6559 C.ar    
  26 C26            6.0041    -4.5424    -5.0262 C.ar    
  27 C27            6.0366    -3.9990    -3.7546 C.ar    
  28 C28            4.8602    -3.6749    -3.1096 C.ar    
  29 H29            2.1775    -2.3583     0.7423 H       
  30 H30            0.4039    -2.4798     0.8304 H       
  31 H31            3.1919    -0.4872    -0.2444 H       
  32 H32           -2.9833    -3.5329     0.7200 H       
  33 H33            3.3412    -2.8349    -1.2752 H       
  34 H34            1.9946     0.3578    -2.2248 H       
  35 H35            1.2342     1.6341    -1.2424 H       
  36 H36            4.2264     1.2881    -1.7421 H       
  37 H37            3.1823     2.5431    -2.4519 H       
  38 H38            4.6814     1.3736     0.6431 H       
  39 H39            3.9549     2.6884     1.5985 H       
  40 H40            1.7107     1.7237     1.2560 H       
  41 H41            2.7958     0.5084     1.9756 H       
  42 H42           -0.9192    -2.6744    -1.2577 H       
  43 H43           -0.9769    -3.6519    -3.5149 H       
  44 H44            1.1207    -4.2213    -4.6670 H       
  45 H45           -4.9986    -1.2656     1.9618 H       
  46 H46           -5.1355    -0.4045     0.4100 H       
  47 H47           -5.2357    -2.1811     0.4539 H       
  48 H48            2.6666    -4.6329    -5.5104 H       
  49 H49            4.7740    -5.1948    -6.6486 H       
  50 H50            6.9271    -4.7903    -5.5291 H       
  51 H51            6.9844    -3.8243    -3.2672 H       
  52 H52            4.8867    -3.2508    -2.1167 H       
@<TRIPOS>BOND
   1    1    2 1
   2    1    8 1
   3    1   11 2
   4    2    3 am
   5    2    7 2
   6    3    4 1
   7    3    6 1
   8    4    5 1
   9    4   29 1
  10    4   30 1
  11    5   12 ar
  12    5   18 ar
  13    6   13 1
  14    6   17 1
  15    6   31 1
  16    8    9 2
  17    9   10 1
  18    9   32 1
  19   10   11 1
  20   10   22 1
  21   12   21 ar
  22   12   33 1
  23   13   14 1
  24   13   34 1
  25   13   35 1
  26   14   15 1
  27   14   36 1
  28   14   37 1
  29   15   16 1
  30   16   17 1
  31   16   38 1
  32   16   39 1
  33   17   40 1
  34   17   41 1
  35   18   19 ar
  36   18   42 1
  37   19   20 ar
  38   19   43 1
  39   20   21 ar
  40   20   44 1
  41   21   23 1
  42   22   45 1
  43   22   46 1
  44   22   47 1
  45   23   24 ar
  46   23   28 ar
  47   24   25 ar
  48   24   48 1
  49   25   26 ar
  50   25   49 1
  51   26   27 ar
  52   26   50 1
  53   27   28 ar
  54   27   51 1
  55   28   52 1

#	End of record

