#	Name: ASD01208594
#	Creating user name:	WinNT
#	Creation time:	15. 06. 2019 19:10

#	Modifying user name:	WinNT
#	Modification time:	15. 06. 2019 19:10

#	Program:	/corina/corina34_cracker 3.40 0067  02.08.2006

@<TRIPOS>MOLECULE
ASD01208594
  63   66    0    0    0
SMALL
NO_CHARGES


@<TRIPOS>ATOM
   1 C1            -1.5732     1.4604    -1.2988 C.ar    
   2 C2            -1.6125     0.0737    -1.4040 C.ar    
   3 N3            -1.9336     2.2107    -2.3300 N.ar    
   4 N4            -2.0083    -0.4899    -2.5297 N.ar    
   5 C5            -2.3673     0.2620    -3.5567 C.ar    
   6 C6            -2.3293     1.6397    -3.4551 C.ar    
   7 S7            -2.8952    -0.4945    -5.0579 S.o2    
   8 O8            -2.6031     0.4712    -6.0586 O.2     
   9 O9            -2.2550    -1.7632    -5.0551 O.2     
  10 C10           -4.6884    -0.6860    -4.8621 C.3     
  11 O11           -1.1721     2.0433    -0.1412 O.3     
  12 C12           -1.0518     3.3968    -0.1166 C.ar    
  13 C13           -2.1765     4.1938    -0.2544 C.ar    
  14 C14           -2.0518     5.5831    -0.2290 C.ar    
  15 C15           -0.7934     6.1639    -0.0647 C.ar    
  16 C16            0.3256     5.3599     0.0723 C.ar    
  17 C17            0.1965     3.9784     0.0522 C.ar    
  18 O18            1.5514     5.9245     0.2323 O.3     
  19 C19            3.6428     5.7386     1.4290 C.3     
  20 C20            2.6417     5.0420     0.5052 C.3     
  21 C21            3.3341     4.6659    -0.8063 C.3     
  22 O22            4.2210     6.8548     0.7495 O.3     
  23 C23            5.1755     7.5787     1.5286 C.3     
  24 N24           -4.5314     5.9965    -0.5429 N.pl3   
  25 C25           -3.2490     6.4375    -0.3761 C.2     
  26 C26           -3.2631     7.8140    -0.3680 C.2     
  27 C27           -4.5870     8.2237    -0.5341 C.2     
  28 C28           -5.3609     7.0885    -0.6410 C.2     
  29 O29           -7.5215     5.9029    -0.9272 O.3     
  30 C30           -6.8184     7.0517    -0.8282 C.2     
  31 N31           -7.5521     8.1228    -0.9137 N.2     
  32 C32           -8.9555     7.7114    -1.1121 C.3     
  33 C33           -8.8032     6.2221    -1.5063 C.3     
  34 C34           -9.9137     5.3731    -0.8842 C.3     
  35 C35           -9.7078     3.9057    -1.2652 C.3     
  36 H36           -1.3191    -0.5407    -0.5657 H       
  37 H37           -2.6234     2.2507    -4.2956 H       
  38 H38           -5.1447     0.2933    -4.7175 H       
  39 H39           -5.1037    -1.1520    -5.7556 H       
  40 H40           -4.8942    -1.3143    -3.9955 H       
  41 H41           -3.1484     3.7403    -0.3816 H       
  42 H42           -0.6925     7.2390    -0.0449 H       
  43 H43            1.0708     3.3541     0.1637 H       
  44 H44            3.1293     6.0853     2.3258 H       
  45 H45            4.4284     5.0367     1.7086 H       
  46 H46            2.2667     4.1404     0.9896 H       
  47 H47            4.1657     3.9927    -0.5981 H       
  48 H48            2.6208     4.1696    -1.4644 H       
  49 H49            3.7090     5.5675    -1.2907 H       
  50 H50            5.9929     6.9150     1.8103 H       
  51 H51            5.5677     8.4097     0.9424 H       
  52 H52            4.6938     7.9637     2.4274 H       
  53 H53           -4.8095     5.0683    -0.5887 H       
  54 H54           -2.4052     8.4600    -0.2536 H       
  55 H55           -4.9403     9.2436    -0.5712 H       
  56 H56           -9.5252     7.8131    -0.1884 H       
  57 H57           -9.4180     8.2817    -1.9177 H       
  58 H58           -8.7833     6.1043    -2.5897 H       
  59 H59           -9.8841     5.4745     0.2006 H       
  60 H60          -10.8811     5.7123    -1.2546 H       
  61 H61           -9.7374     3.8043    -2.3500 H       
  62 H62           -8.7404     3.5664    -0.8948 H       
  63 H63          -10.4989     3.3008    -0.8220 H       
@<TRIPOS>BOND
   1    1    2 ar
   2    1    3 ar
   3    1   11 1
   4    2    4 ar
   5    2   36 1
   6    3    6 ar
   7    4    5 ar
   8    5    6 ar
   9    5    7 1
  10    6   37 1
  11    7    8 2
  12    7    9 2
  13    7   10 1
  14   10   38 1
  15   10   39 1
  16   10   40 1
  17   11   12 1
  18   12   13 ar
  19   12   17 ar
  20   13   14 ar
  21   13   41 1
  22   14   15 ar
  23   14   25 1
  24   15   16 ar
  25   15   42 1
  26   16   17 ar
  27   16   18 1
  28   17   43 1
  29   18   20 1
  30   19   20 1
  31   19   22 1
  32   19   44 1
  33   19   45 1
  34   20   21 1
  35   20   46 1
  36   21   47 1
  37   21   48 1
  38   21   49 1
  39   22   23 1
  40   23   50 1
  41   23   51 1
  42   23   52 1
  43   24   25 1
  44   24   28 1
  45   24   53 1
  46   25   26 2
  47   26   27 1
  48   26   54 1
  49   27   28 2
  50   27   55 1
  51   28   30 1
  52   29   30 1
  53   29   33 1
  54   30   31 2
  55   31   32 1
  56   32   33 1
  57   32   56 1
  58   32   57 1
  59   33   34 1
  60   33   58 1
  61   34   35 1
  62   34   59 1
  63   34   60 1
  64   35   61 1
  65   35   62 1
  66   35   63 1

#	End of record

