#	Name: ASD01708027
#	Creating user name:	WinNT
#	Creation time:	15. 06. 2019 19:22

#	Modifying user name:	WinNT
#	Modification time:	15. 06. 2019 19:22

#	Program:	/corina/corina34_cracker 3.40 0067  02.08.2006

@<TRIPOS>MOLECULE
ASD01708027
  72   76    0    0    0
SMALL
NO_CHARGES


@<TRIPOS>ATOM
   1 C1             0.0383     1.4198    -0.0595 C.ar    
   2 C2             1.1602     1.9753     0.5593 C.ar    
   3 C3             0.1188     0.1590    -0.6798 C.ar    
   4 C4             1.3221    -0.5265    -0.6718 C.ar    
   5 C5             2.4351     0.0389    -0.0515 C.ar    
   6 C6             2.3414     1.2941     0.5637 C.ar    
   7 C7             3.7187    -0.6898    -0.0411 C.2     
   8 N8             3.7298    -2.0341     0.0549 N.am    
   9 O9             4.7661    -0.0772    -0.1192 O.2     
  10 C10            4.9816    -2.8002    -0.0629 C.3     
  11 C11            2.4962    -2.7926     0.2871 C.3     
  12 C12            2.7390    -3.8497     1.3359 C.ar    
  13 C13            4.0042    -4.1707     1.7782 C.ar    
  14 C14            5.2404    -3.4850     1.2780 C.3     
  15 C15            1.6308    -4.5075     1.8562 C.ar    
  16 C16            1.7787    -5.4897     2.8113 C.ar    
  17 C17            3.0586    -5.8276     3.2598 C.ar    
  18 C18            4.1664    -5.1621     2.7369 C.ar    
  19 Cl19           5.7597    -5.5759     3.2878 Cl      
  20 Cl20           0.3849    -6.3013     3.4534 Cl      
  21 C21            3.2361    -6.8812     4.2794 C.2     
  22 N22            3.2333    -6.5596     5.5883 N.am    
  23 O23            3.3847    -8.0385     3.9382 O.2     
  24 C24            3.4093    -7.6047     6.5997 C.3     
  25 C25            2.0771    -8.2413     6.9014 C.2     
  26 O26            1.9953    -9.2308     7.8048 O.3     
  27 O27            1.0826    -7.8610     6.3302 O.2     
  28 C28            3.9803    -6.9868     7.8776 C.3     
  29 N29            4.1564    -8.0319     8.8890 N.pl3   
  30 C30           -1.3455     1.8628    -0.2529 C.2     
  31 C31           -1.9610     0.8834    -0.9331 C.2     
  32 O32           -1.1009    -0.1172    -1.1850 O.3     
  33 C33            5.3329    -6.3405     7.5713 C.3     
  34 C34            4.1535    -7.7059    10.2156 C.2     
  35 N35            4.3177    -8.6804    11.1587 N.pl3   
  36 C36            4.4040   -10.1279    10.8926 C.3     
  37 C37            4.4439    -8.4590    12.6067 C.3     
  38 C38            4.5843    -9.8445    13.2716 C.3     
  39 C39            3.9651   -10.8014    12.2167 C.3     
  40 O40            4.5153   -12.1152    12.3316 O.3     
  41 O41            3.8499    -9.8943    14.4964 O.3     
  42 N42            3.9919    -6.4479    10.5866 N.2     
  43 C43            4.0936    -6.1088    11.8945 C.1     
  44 N44            4.1789    -5.8246    12.9911 N.1     
  45 H45            1.0924     2.9433     1.0334 H       
  46 H46            1.3978    -1.4949    -1.1438 H       
  47 H47            3.2087     1.7247     1.0420 H       
  48 H48            4.8824    -3.5505    -0.8473 H       
  49 H49            5.8056    -2.1265    -0.2981 H       
  50 H50            1.7132    -2.1157     0.6289 H       
  51 H51            2.1829    -3.2687    -0.6420 H       
  52 H52            6.0327    -4.2226     1.1504 H       
  53 H53            5.5583    -2.7414     2.0088 H       
  54 H54            0.6425    -4.2457     1.5083 H       
  55 H55            3.1147    -5.6362     5.8606 H       
  56 H56            4.0970    -8.3622     6.2237 H       
  57 H57            1.1193    -9.6079     7.9646 H       
  58 H58            3.2926    -6.2293     8.2536 H       
  59 H59            4.2750    -8.9553     8.6167 H       
  60 H60           -1.7821     2.7912     0.0843 H       
  61 H61           -2.9972     0.8990    -1.2372 H       
  62 H62            6.0206    -7.0979     7.1952 H       
  63 H63            5.2019    -5.5629     6.8187 H       
  64 H64            5.7397    -5.9002     8.4816 H       
  65 H65            3.7284   -10.4058    10.0835 H       
  66 H66            5.4281   -10.4078    10.6458 H       
  67 H67            5.3287    -7.8570    12.8139 H       
  68 H68            3.5537    -7.9554    12.9836 H       
  69 H69            5.6336   -10.0871    13.4397 H       
  70 H70            2.8787   -10.8257    12.3013 H       
  71 H71            4.1589   -12.7481    11.6932 H       
  72 H72            4.1506    -9.2599    15.1614 H       
@<TRIPOS>BOND
   1    1    2 ar
   2    1    3 ar
   3    1   30 1
   4    2    6 ar
   5    2   45 1
   6    3    4 ar
   7    3   32 1
   8    4    5 ar
   9    4   46 1
  10    5    6 ar
  11    5    7 1
  12    6   47 1
  13    7    8 am
  14    7    9 2
  15    8   10 1
  16    8   11 1
  17   10   14 1
  18   10   48 1
  19   10   49 1
  20   11   12 1
  21   11   50 1
  22   11   51 1
  23   12   13 ar
  24   12   15 ar
  25   13   14 1
  26   13   18 ar
  27   14   52 1
  28   14   53 1
  29   15   16 ar
  30   15   54 1
  31   16   17 ar
  32   16   20 1
  33   17   18 ar
  34   17   21 1
  35   18   19 1
  36   21   22 am
  37   21   23 2
  38   22   24 1
  39   22   55 1
  40   24   25 1
  41   24   28 1
  42   24   56 1
  43   25   26 1
  44   25   27 2
  45   26   57 1
  46   28   29 1
  47   28   33 1
  48   28   58 1
  49   29   34 1
  50   29   59 1
  51   30   31 2
  52   30   60 1
  53   31   32 1
  54   31   61 1
  55   33   62 1
  56   33   63 1
  57   33   64 1
  58   34   35 1
  59   34   42 2
  60   35   36 1
  61   35   37 1
  62   36   39 1
  63   36   65 1
  64   36   66 1
  65   37   38 1
  66   37   67 1
  67   37   68 1
  68   38   39 1
  69   38   41 1
  70   38   69 1
  71   39   40 1
  72   39   70 1
  73   40   71 1
  74   41   72 1
  75   42   43 1
  76   43   44 3

#	End of record

