#	Name: ASD01915891
#	Creating user name:	WinNT
#	Creation time:	15. 06. 2019 20:06

#	Modifying user name:	WinNT
#	Modification time:	15. 06. 2019 20:06

#	Program:	/corina/corina34_cracker 3.40 0067  02.08.2006

@<TRIPOS>MOLECULE
ASD01915891
  27   29    0    0    0
SMALL
NO_CHARGES


@<TRIPOS>ATOM
   1 C1             0.0142     1.2665    -0.7519 C.2     
   2 C2             0.0157    -0.0536    -0.3403 C.2     
   3 C3            -1.2989    -0.8067    -0.2254 C.3     
   4 C4            -2.4037     0.1864     0.1294 C.3     
   5 N5            -2.3820     1.3781    -0.7087 N.am    
   6 C6            -1.2247     1.9695    -1.0915 C.2     
   7 O7            -1.2156     3.0344    -1.6814 O.2     
   8 S8             1.6655     1.8439    -0.7789 S.3     
   9 C9             2.2183     0.3131    -0.2517 C.2     
  10 N10            1.2181    -0.5031    -0.0899 N.2     
  11 H11           -3.2235     1.7591    -1.0048 H       
  12 O12            3.5150    -0.0045    -0.0334 O.3     
  13 C13            4.4409     0.9843    -0.1410 C.ar    
  14 C14            4.5784     1.9201     0.8733 C.ar    
  15 C15            5.5221     2.9260     0.7611 C.ar    
  16 C16            6.3274     2.9978    -0.3632 C.ar    
  17 C17            6.1905     2.0650    -1.3745 C.ar    
  18 C18            5.2540     1.0558    -1.2635 C.ar    
  19 F19            5.6574     3.8384     1.7482 F       
  20 H20           -1.5300    -1.2861    -1.1766 H       
  21 H21           -1.2207    -1.5613     0.5573 H       
  22 H22           -3.3693    -0.3062     0.0152 H       
  23 H23           -2.2856     0.4866     1.1705 H       
  24 H24            3.9496     1.8641     1.7496 H       
  25 H25            7.0631     3.7836    -0.4503 H       
  26 H26            6.8197     2.1230    -2.2504 H       
  27 H27            5.1482     0.3278    -2.0542 H       
@<TRIPOS>BOND
   1    1    2 2
   2    1    8 1
   3    1    6 1
   4    2    3 1
   5    2   10 1
   6    3    4 1
   7    3   20 1
   8    3   21 1
   9    4    5 1
  10    4   22 1
  11    4   23 1
  12    5    6 am
  13    5   11 1
  14    6    7 2
  15    8    9 1
  16    9   10 2
  17    9   12 1
  18   12   13 1
  19   13   14 ar
  20   13   18 ar
  21   14   15 ar
  22   14   24 1
  23   15   16 ar
  24   15   19 1
  25   16   17 ar
  26   16   25 1
  27   17   18 ar
  28   17   26 1
  29   18   27 1

#	End of record

