#	Name: ASD00191001
#	Creating user name:	WinNT
#	Creation time:	15. 06. 2019 18:33

#	Modifying user name:	WinNT
#	Modification time:	15. 06. 2019 18:33

#	Program:	/corina/corina34_cracker 3.40 0067  02.08.2006

@<TRIPOS>MOLECULE
ASD00191001
  46   49    0    0    0
SMALL
NO_CHARGES


@<TRIPOS>ATOM
   1 C1            -1.0961     0.9896     0.3563 C.3     
   2 C2            -1.1885    -0.5463     0.3503 C.3     
   3 C3             0.2602    -1.0748     0.3093 C.3     
   4 C4             1.1041     0.0844     0.8951 C.3     
   5 C5             0.4055     1.3409     0.3187 C.3     
   6 C6            -1.7886     1.5532    -0.8577 C.2     
   7 O7            -2.3104     0.8073    -1.6591 O.2     
   8 N8            -1.8282     2.8862    -1.0529 N.am    
   9 N9            -3.2620     4.4116    -4.6524 N.ar    
  10 C10           -2.7405     3.2014    -4.6020 C.ar    
  11 C11           -2.2509     2.6625    -3.4082 C.ar    
  12 C12           -2.3081     3.3996    -2.2539 C.ar    
  13 C13           -2.8701     4.6988    -2.3178 C.ar    
  14 C14           -2.9609     5.5087    -1.1785 C.ar    
  15 C15           -3.5074     6.7538    -1.2778 C.ar    
  16 C16           -3.9772     7.2310    -2.4979 C.ar    
  17 C17           -3.9042     6.4687    -3.6244 C.ar    
  18 C18           -3.3465     5.1811    -3.5599 C.ar    
  19 N19           -2.6764     2.4433    -5.7631 N.pl3   
  20 C20           -3.3564     2.8627    -6.9100 C.ar    
  21 C21           -3.7705     1.9311    -7.8535 C.ar    
  22 C22           -4.4421     2.3489    -8.9856 C.ar    
  23 C23           -4.7019     3.6931    -9.1807 C.ar    
  24 C24           -4.2906     4.6232    -8.2436 C.ar    
  25 C25           -3.6245     4.2115    -7.1061 C.ar    
  26 H26           -1.5501     1.3875     1.2639 H       
  27 H27           -1.6873    -0.8939     1.2550 H       
  28 H28           -1.7342    -0.8841    -0.5307 H       
  29 H29            0.3582    -1.9678     0.9266 H       
  30 H30            0.5608    -1.2846    -0.7172 H       
  31 H31            1.0592     0.0828     1.9842 H       
  32 H32            2.1362     0.0237     0.5498 H       
  33 H33            0.7296     1.5212    -0.7062 H       
  34 H34            0.6095     2.2109     0.9430 H       
  35 H35           -1.5220     3.4877    -0.3562 H       
  36 H36           -1.8291     1.6683    -3.3955 H       
  37 H37           -2.6003     5.1486    -0.2263 H       
  38 H38           -3.5769     7.3774    -0.3988 H       
  39 H39           -4.4065     8.2206    -2.5523 H       
  40 H40           -4.2738     6.8529    -4.5637 H       
  41 H41           -2.1598     1.6225    -5.7785 H       
  42 H42           -3.5672     0.8813    -7.7020 H       
  43 H43           -4.7643     1.6252    -9.7195 H       
  44 H44           -5.2270     4.0172   -10.0671 H       
  45 H45           -4.4949     5.6723    -8.3992 H       
  46 H46           -3.3081     4.9379    -6.3721 H       
@<TRIPOS>BOND
   1    1    2 1
   2    1    5 1
   3    1    6 1
   4    1   26 1
   5    2    3 1
   6    2   27 1
   7    2   28 1
   8    3    4 1
   9    3   29 1
  10    3   30 1
  11    4    5 1
  12    4   31 1
  13    4   32 1
  14    5   33 1
  15    5   34 1
  16    6    7 2
  17    6    8 am
  18    8   12 1
  19    8   35 1
  20    9   10 ar
  21    9   18 ar
  22   10   11 ar
  23   10   19 1
  24   11   12 ar
  25   11   36 1
  26   12   13 ar
  27   13   14 ar
  28   13   18 ar
  29   14   15 ar
  30   14   37 1
  31   15   16 ar
  32   15   38 1
  33   16   17 ar
  34   16   39 1
  35   17   18 ar
  36   17   40 1
  37   19   20 1
  38   19   41 1
  39   20   21 ar
  40   20   25 ar
  41   21   22 ar
  42   21   42 1
  43   22   23 ar
  44   22   43 1
  45   23   24 ar
  46   23   44 1
  47   24   25 ar
  48   24   45 1
  49   25   46 1

#	End of record

