#	Name: ASD03082124
#	Creating user name:	WinNT
#	Creation time:	15. 06. 2019 20:27

#	Modifying user name:	WinNT
#	Modification time:	15. 06. 2019 20:27

#	Program:	/corina/corina34_cracker 3.40 0067  02.08.2006

@<TRIPOS>MOLECULE
ASD03082124
  45   47    0    0    0
SMALL
NO_CHARGES


@<TRIPOS>ATOM
   1 C1            -0.0073     1.4366    -0.0063 C.ar    
   2 C2            -0.0774     0.1321    -0.4784 C.ar    
   3 C3            -1.2766    -0.5519    -0.4373 C.ar    
   4 C4            -2.4065     0.0603     0.0729 C.ar    
   5 C5            -2.3403     1.3593     0.5433 C.ar    
   6 C6            -1.1434     2.0470     0.5106 C.ar    
   7 F7            -4.6522     1.1331     1.0309 F       
   8 F8            -3.3509     2.3851     2.4302 F       
   9 C9            -3.5747     2.0228     1.0976 C.3     
  10 F10           -3.8668     3.1662     0.3462 F       
  11 N11            1.2044     2.1315    -0.0459 N.pl3   
  12 C12            2.4109     1.4382     0.0699 C.2     
  13 N13            2.5333     0.1339     0.3193 N.2     
  14 N14            3.6078     1.9646    -0.0549 N.2     
  15 N15            4.5334     0.9255     0.1340 N.pl3   
  16 C16            3.8094    -0.1926     0.3634 C.2     
  17 C17            5.9938     1.0316     0.0875 C.3     
  18 C18            6.5139     1.4060     1.4515 C.2     
  19 C19            4.3537    -1.5448     0.6197 C.ar    
  20 C20            5.6689    -1.7180     1.0640 C.ar    
  21 C21            6.1357    -2.9966     1.2905 C.ar    
  22 N22            5.3603    -4.0455     1.0937 N.ar    
  23 C23            4.1149    -3.9266     0.6755 C.ar    
  24 C24            3.5654    -2.6849     0.4300 C.ar    
  25 C25            7.9947     1.5787     1.6719 C.3     
  26 N26            8.2421     1.9405     3.0740 N.3     
  27 C27            9.6784     2.1175     3.3264 C.3     
  28 O28            5.7441     1.5676     2.3678 O.2     
  29 H29            0.8047    -0.3465    -0.8773 H       
  30 H30           -1.3319    -1.5661    -0.8045 H       
  31 H31           -3.3429    -0.4769     0.1038 H       
  32 H32           -1.0924     3.0611     0.8784 H       
  33 H33            1.2074     3.0954    -0.1537 H       
  34 H34            6.4183     0.0736    -0.2128 H       
  35 H35            6.2797     1.7976    -0.6332 H       
  36 H36            6.3094    -0.8639     1.2269 H       
  37 H37            7.1497    -3.1406     1.6333 H       
  38 H38            3.5158    -4.8130     0.5274 H       
  39 H39            2.5449    -2.5950     0.0881 H       
  40 H40            8.5077     0.6450     1.4417 H       
  41 H41            8.3691     2.3690     1.0212 H       
  42 H42            7.7252     2.7683     3.3305 H       
  43 H43           10.2030     1.1875     3.1077 H       
  44 H44           10.0645     2.9115     2.6873 H       
  45 H45            9.8333     2.3849     4.3717 H       
@<TRIPOS>BOND
   1    1    2 ar
   2    1   11 1
   3    1    6 ar
   4    2    3 ar
   5    2   29 1
   6    3    4 ar
   7    3   30 1
   8    4    5 ar
   9    4   31 1
  10    5    6 ar
  11    5    9 1
  12    6   32 1
  13    7    9 1
  14    8    9 1
  15    9   10 1
  16   11   12 1
  17   11   33 1
  18   12   13 1
  19   12   14 2
  20   13   16 2
  21   14   15 1
  22   15   16 1
  23   15   17 1
  24   16   19 1
  25   17   18 1
  26   17   34 1
  27   17   35 1
  28   18   25 1
  29   18   28 2
  30   19   20 ar
  31   19   24 ar
  32   20   21 ar
  33   20   36 1
  34   21   22 ar
  35   21   37 1
  36   22   23 ar
  37   23   24 ar
  38   23   38 1
  39   24   39 1
  40   25   26 1
  41   25   40 1
  42   25   41 1
  43   26   27 1
  44   26   42 1
  45   27   43 1
  46   27   44 1
  47   27   45 1

#	End of record

