#	Name: ASD01948046
#	Creating user name:	WinNT
#	Creation time:	15. 06. 2019 20:13

#	Modifying user name:	WinNT
#	Modification time:	15. 06. 2019 20:13

#	Program:	/corina/corina34_cracker 3.40 0067  02.08.2006

@<TRIPOS>MOLECULE
ASD01948046
  44   47    0    0    0
SMALL
NO_CHARGES


@<TRIPOS>ATOM
   1 C1            -0.0162     1.5252    -1.9034 C.3     
   2 C2            -0.1967     0.0099    -2.0147 C.3     
   3 C3            -0.9571     0.9424    -2.9598 C.3     
   4 S4            -0.7696     2.3559    -0.4775 S.o2    
   5 O5            -2.1841     2.3880    -0.6093 O.2     
   6 O6            -0.1558     1.9278     0.7305 O.2     
   7 N7            -0.3090     3.9391    -0.6309 N.am    
   8 C8             2.0021     3.3157    -0.3753 C.2     
   9 C9             1.0503     4.2926    -0.5103 C.2     
  10 C10            1.4275     5.6460    -0.5290 C.2     
  11 C11            2.7718     5.9750    -0.4054 C.2     
  12 C12            3.7083     4.9520    -0.2725 C.2     
  13 N13            3.3190     3.6642    -0.2688 N.am    
  14 O14            1.8359     1.9678    -0.3198 O.3     
  15 C15            4.1106     2.4215    -0.1691 C.3     
  16 C16            3.0972     1.3463    -0.6235 C.3     
  17 O17            4.8938     5.2270    -0.1587 O.2     
  18 C18            3.2103     7.4167    -0.4155 C.3     
  19 N19            0.4710     6.6400    -0.6693 N.pl3   
  20 C20           -0.3232     6.6891    -1.8201 C.ar    
  21 C21           -1.3656     7.6063    -1.9092 C.ar    
  22 C22           -2.1480     7.6515    -3.0480 C.ar    
  23 C23           -1.8947     6.7858    -4.0974 C.ar    
  24 C24           -0.8594     5.8731    -4.0105 C.ar    
  25 C25           -0.0695     5.8267    -2.8777 C.ar    
  26 I26           -3.0828     6.8576    -5.8214 I       
  27 F27           -1.6130     8.4511    -0.8843 F       
  28 H28            0.9283     1.9461    -2.2479 H       
  29 H29            0.6291    -0.5659    -2.4325 H       
  30 H30           -0.7681    -0.4878    -1.2312 H       
  31 H31           -2.0288     1.0582    -2.7980 H       
  32 H32           -0.6316     0.9800    -3.9994 H       
  33 H33           -0.9746     4.6233    -0.8038 H       
  34 H34            4.9687     2.4537    -0.8405 H       
  35 H35            4.4277     2.2454     0.8588 H       
  36 H36            3.2244     0.4271    -0.0517 H       
  37 H37            3.1879     1.1551    -1.6928 H       
  38 H38            3.2946     7.7780     0.6094 H       
  39 H39            4.1780     7.4987    -0.9104 H       
  40 H40            2.4755     8.0162    -0.9528 H       
  41 H41            0.3526     7.3013     0.0303 H       
  42 H42           -2.9577     8.3627    -3.1185 H       
  43 H43           -0.6651     5.1986    -4.8312 H       
  44 H44            0.7420     5.1169    -2.8134 H       
@<TRIPOS>BOND
   1    1    2 1
   2    1    3 1
   3    1    4 1
   4    1   28 1
   5    2    3 1
   6    2   29 1
   7    2   30 1
   8    3   31 1
   9    3   32 1
  10    4    5 2
  11    4    6 2
  12    4    7 am
  13    7    9 1
  14    7   33 1
  15    8    9 2
  16    8   13 1
  17    8   14 1
  18    9   10 1
  19   10   11 2
  20   10   19 1
  21   11   12 1
  22   11   18 1
  23   12   13 am
  24   12   17 2
  25   13   15 1
  26   14   16 1
  27   15   16 1
  28   15   34 1
  29   15   35 1
  30   16   36 1
  31   16   37 1
  32   18   38 1
  33   18   39 1
  34   18   40 1
  35   19   20 1
  36   19   41 1
  37   20   21 ar
  38   20   25 ar
  39   21   22 ar
  40   21   27 1
  41   22   23 ar
  42   22   42 1
  43   23   24 ar
  44   23   26 1
  45   24   25 ar
  46   24   43 1
  47   25   44 1

#	End of record

