#	Name: ASD07300928
#	Creating user name:	WinNT
#	Creation time:	15. 06. 2019 21:10

#	Modifying user name:	WinNT
#	Modification time:	15. 06. 2019 21:10

#	Program:	/corina/corina34_cracker 3.40 0067  02.08.2006

@<TRIPOS>MOLECULE
ASD07300928
  48   52    0    0    0
SMALL
NO_CHARGES


@<TRIPOS>ATOM
   1 N1            -0.1599     1.4288     0.1292 N.am    
   2 C2            -0.0745     0.0769     0.0503 C.2     
   3 N3             1.0578    -0.5596    -0.0189 N.2     
   4 C4             2.2349     0.0855    -0.0174 C.2     
   5 C5             2.2471     1.4871     0.0610 C.2     
   6 C6             0.9634     2.1842     0.1385 C.2     
   7 N7             3.5327    -0.3109    -0.0780 N.pl3   
   8 N8             4.3437     0.8303    -0.0378 N.2     
   9 C9             3.5940     1.8948     0.0442 C.2     
  10 O10            0.9073     3.3992     0.2081 O.2     
  11 C11            4.0035    -1.6951    -0.1693 C.3     
  12 C12            4.7131    -1.9053    -1.5084 C.3     
  13 C13            5.2048    -3.3509    -1.6037 C.3     
  14 C14            6.1803    -3.6343    -0.4596 C.3     
  15 C15            5.4707    -3.4242     0.8795 C.3     
  16 C16            4.9790    -1.9785     0.9748 C.3     
  17 C17           -1.3508    -0.7244     0.0429 C.3     
  18 C18           -1.1742    -2.1688     0.5402 C.3     
  19 C19           -0.8642    -2.5493    -0.9171 C.3     
  20 C20           -1.6945    -1.3229    -1.3313 C.3     
  21 C21           -1.1049    -0.5573    -2.4877 C.ar    
  22 N22           -1.9032    -0.1186    -3.4401 N.ar    
  23 F23            6.6299    -4.9562    -0.5468 F       
  24 F24            7.2716    -2.7636    -0.5508 F       
  25 C25           -1.4215     0.5576    -4.4706 C.ar    
  26 C26           -0.0589     0.8018    -4.5391 C.ar    
  27 C27            0.7485     0.3245    -3.5186 C.ar    
  28 N28            0.1947    -0.3397    -2.5170 N.ar    
  29 H29           -1.0295     1.8560     0.1752 H       
  30 H30            3.9466     2.9145     0.0911 H       
  31 H31            3.1533    -2.3735    -0.0982 H       
  32 H32            4.0181    -1.7034    -2.3235 H       
  33 H33            5.5633    -1.2269    -1.5794 H       
  34 H34            4.3546    -4.0293    -1.5327 H       
  35 H35            5.7103    -3.5006    -2.5577 H       
  36 H36            4.6205    -4.1026     0.9506 H       
  37 H37            6.1657    -3.6261     1.6946 H       
  38 H38            5.8292    -1.3001     0.9038 H       
  39 H39            4.4735    -1.8288     1.9288 H       
  40 H40           -2.1828    -0.1995     0.5125 H       
  41 H41           -0.3277    -2.2979     1.2147 H       
  42 H42           -2.0927    -2.6145     0.9220 H       
  43 H43            0.1919    -2.4687    -1.1743 H       
  44 H44           -1.3043    -3.4982    -1.2237 H       
  45 H45           -2.7552    -1.5374    -1.4612 H       
  46 H46           -2.0811     0.9141    -5.2479 H       
  47 H47            0.3637     1.3505    -5.3679 H       
  48 H48            1.8146     0.4955    -3.5388 H       
@<TRIPOS>BOND
   1    1    2 1
   2    1    6 am
   3    1   29 1
   4    2    3 2
   5    2   17 1
   6    3    4 1
   7    4    5 2
   8    4    7 1
   9    5    6 1
  10    5    9 1
  11    6   10 2
  12    7    8 1
  13    7   11 1
  14    8    9 2
  15    9   30 1
  16   11   12 1
  17   11   16 1
  18   11   31 1
  19   12   13 1
  20   12   32 1
  21   12   33 1
  22   13   14 1
  23   13   34 1
  24   13   35 1
  25   14   15 1
  26   14   23 1
  27   14   24 1
  28   15   16 1
  29   15   36 1
  30   15   37 1
  31   16   38 1
  32   16   39 1
  33   17   18 1
  34   17   20 1
  35   17   40 1
  36   18   19 1
  37   18   41 1
  38   18   42 1
  39   19   20 1
  40   19   43 1
  41   19   44 1
  42   20   21 1
  43   20   45 1
  44   21   22 ar
  45   21   28 ar
  46   22   25 ar
  47   25   26 ar
  48   25   46 1
  49   26   27 ar
  50   26   47 1
  51   27   28 ar
  52   27   48 1

#	End of record

