#	Name: ASD08150179
#	Creating user name:	WinNT
#	Creation time:	15. 06. 2019 21:15

#	Modifying user name:	WinNT
#	Modification time:	15. 06. 2019 21:15

#	Program:	/corina/corina34_cracker 3.40 0067  02.08.2006

@<TRIPOS>MOLECULE
ASD08150179
  71   75    0    0    0
SMALL
NO_CHARGES


@<TRIPOS>ATOM
   1 O1             2.2603    -0.2292     0.8804 O.3     
   2 C2             2.4679    -1.4841     0.4664 C.2     
   3 N3             3.6039    -1.6455    -0.2258 N.am    
   4 C4             4.2930    -0.3493    -0.3186 C.3     
   5 C5             3.3638     0.6156     0.4430 C.3     
   6 O6             1.6971    -2.3944     0.6971 O.2     
   7 C7             5.6852    -4.0486    -1.8685 C.ar    
   8 N8             5.2491    -2.9097    -1.3515 N.ar    
   9 C9             4.0574    -2.8429    -0.7675 C.ar    
  10 C10            3.2683    -3.9910    -0.7053 C.ar    
  11 C11            3.7603    -5.1607    -1.2572 C.ar    
  12 N12            4.9585    -5.1553    -1.8247 N.ar    
  13 N13            6.9289    -4.0818    -2.4747 N.3     
  14 C14            7.2313    -5.4275    -2.9834 C.3     
  15 C15            8.5858    -5.4052    -3.6967 C.3     
  16 O16            9.5871    -4.9303    -2.7927 O.3     
  17 C17            9.3247    -3.6220    -2.2783 C.3     
  18 C18            7.9777    -3.6263    -1.5507 C.3     
  19 Cl19           2.8195    -6.6188    -1.2067 Cl      
  20 C20            4.4336     0.0813    -1.7800 C.3     
  21 O21            3.1375     0.3156    -2.3343 O.3     
  22 Si22           3.1625     0.8801    -3.8643 Si      
  23 C23            4.1991    -0.2521    -4.9288 C.ar    
  24 C24            3.6390    -0.8674    -6.0326 C.ar    
  25 C25            4.4061    -1.7053    -6.8203 C.ar    
  26 C26            5.7334    -1.9274    -6.5044 C.ar    
  27 C27            6.2938    -1.3113    -5.4011 C.ar    
  28 C28            5.5278    -0.4700    -4.6159 C.ar    
  29 C29            1.4197     0.9413    -4.5339 C.ar    
  30 C30            0.8361    -0.2017    -5.0476 C.ar    
  31 C31           -0.4536    -0.1564    -5.5432 C.ar    
  32 C32           -1.1598     1.0318    -5.5247 C.ar    
  33 C33           -0.5765     2.1746    -5.0102 C.ar    
  34 C34            0.7116     2.1283    -4.5106 C.ar    
  35 C35            3.8952     2.5928    -3.8825 C.3     
  36 C36            5.4191     2.4966    -3.7846 C.3     
  37 C37            3.5114     3.2979    -5.1849 C.3     
  38 C38            3.3571     3.3904    -2.6929 C.3     
  39 H39            5.2699    -0.3997     0.1624 H       
  40 H40            3.0035     1.4021    -0.2200 H       
  41 H41            3.8799     1.0450     1.3017 H       
  42 H42            2.2955    -3.9679    -0.2367 H       
  43 H43            7.2695    -6.1309    -2.1516 H       
  44 H44            6.4555    -5.7343    -3.6849 H       
  45 H45            8.8406    -6.4126    -4.0256 H       
  46 H46            8.5314    -4.7424    -4.5603 H       
  47 H47           10.1139    -3.3397    -1.5815 H       
  48 H48            9.2918    -2.9074    -3.1008 H       
  49 H49            7.7467    -2.6182    -1.2064 H       
  50 H50            8.0279    -4.3009    -0.6960 H       
  51 H51            5.0228     0.9967    -1.8340 H       
  52 H52            4.9332    -0.7061    -2.3443 H       
  53 H53            2.6020    -0.6939    -6.2794 H       
  54 H54            3.9684    -2.1866    -7.6824 H       
  55 H55            6.3326    -2.5825    -7.1195 H       
  56 H56            7.3307    -1.4850    -5.1541 H       
  57 H57            5.9666     0.0142    -3.7560 H       
  58 H58            1.3878    -1.1300    -5.0621 H       
  59 H59           -0.9093    -1.0492    -5.9452 H       
  60 H60           -2.1672     1.0674    -5.9125 H       
  61 H61           -1.1282     3.1030    -4.9960 H       
  62 H62            1.1660     3.0202    -4.1053 H       
  63 H63            5.7941     1.8508    -4.5785 H       
  64 H64            5.8534     3.4909    -3.8894 H       
  65 H65            5.6953     2.0797    -2.8161 H       
  66 H66            2.4344     3.4653    -5.2037 H       
  67 H67            4.0289     4.2553    -5.2460 H       
  68 H68            3.7972     2.6756    -6.0329 H       
  69 H69            3.7098     2.9409    -1.7647 H       
  70 H70            3.7108     4.4195    -2.7556 H       
  71 H71            2.2673     3.3791    -2.7110 H       
@<TRIPOS>BOND
   1    1    2 1
   2    1    5 1
   3    2    3 am
   4    2    6 2
   5    3    4 1
   6    3    9 1
   7    4    5 1
   8    4   20 1
   9    4   39 1
  10    5   40 1
  11    5   41 1
  12    7    8 ar
  13    7   12 ar
  14    7   13 1
  15    8    9 ar
  16    9   10 ar
  17   10   11 ar
  18   10   42 1
  19   11   12 ar
  20   11   19 1
  21   13   14 1
  22   13   18 1
  23   14   15 1
  24   14   43 1
  25   14   44 1
  26   15   16 1
  27   15   45 1
  28   15   46 1
  29   16   17 1
  30   17   18 1
  31   17   47 1
  32   17   48 1
  33   18   49 1
  34   18   50 1
  35   20   21 1
  36   20   51 1
  37   20   52 1
  38   21   22 1
  39   22   23 1
  40   22   29 1
  41   22   35 1
  42   23   24 ar
  43   23   28 ar
  44   24   25 ar
  45   24   53 1
  46   25   26 ar
  47   25   54 1
  48   26   27 ar
  49   26   55 1
  50   27   28 ar
  51   27   56 1
  52   28   57 1
  53   29   30 ar
  54   29   34 ar
  55   30   31 ar
  56   30   58 1
  57   31   32 ar
  58   31   59 1
  59   32   33 ar
  60   32   60 1
  61   33   34 ar
  62   33   61 1
  63   34   62 1
  64   35   36 1
  65   35   38 1
  66   35   37 1
  67   36   63 1
  68   36   64 1
  69   36   65 1
  70   37   66 1
  71   37   67 1
  72   37   68 1
  73   38   69 1
  74   38   70 1
  75   38   71 1

#	End of record

