#	Name: ASD03331023
#	Creating user name:	WinNT
#	Creation time:	15. 06. 2019 20:38

#	Modifying user name:	WinNT
#	Modification time:	15. 06. 2019 20:38

#	Program:	/corina/corina34_cracker 3.40 0067  02.08.2006

@<TRIPOS>MOLECULE
ASD03331023
  63   65    0    0    0
SMALL
NO_CHARGES


@<TRIPOS>ATOM
   1 N1             0.0873     0.9348    -0.0698 N.pl3   
   2 C2            -0.0308    -0.3984     0.1762 C.2     
   3 C3             1.1171    -1.3127     0.5103 C.3     
   4 N4             1.9578    -0.6460     1.5127 N.am    
   5 C5             3.0017     0.2618     1.0647 C.3     
   6 C6             2.5484     0.9597    -0.2267 C.3     
   7 C7             1.2840     1.7768     0.0401 C.3     
   8 C8            -1.1596     1.3828    -0.4201 C.2     
   9 N9            -2.0065     0.3851    -0.3421 N.2     
  10 C10           -1.3413    -0.7297     0.0320 C.2     
  11 C11           -1.9298    -2.0637     0.2446 C.2     
  12 O12           -1.2224    -2.9938     0.5818 O.2     
  13 N13           -3.2521    -2.2533     0.0653 N.am    
  14 C14           -1.4952     2.7661    -0.8204 C.ar    
  15 C15           -2.2906     2.9971    -1.9461 C.ar    
  16 C16           -2.6015     4.2917    -2.3152 C.ar    
  17 C17           -2.1260     5.3594    -1.5722 C.ar    
  18 C18           -1.3353     5.1355    -0.4537 C.ar    
  19 C19           -1.0237     3.8454    -0.0722 C.ar    
  20 F20           -0.8740     6.1815     0.2662 F       
  21 F21           -2.4325     6.6234    -1.9377 F       
  22 F22           -2.7543     1.9564    -2.6722 F       
  23 S23            1.7205    -0.9231     3.1280 S.o2    
  24 O24            2.2055     0.2534     3.7604 O.2     
  25 O25            0.3522    -1.2946     3.2225 O.2     
  26 C26            2.7917    -2.3371     3.5069 C.3     
  27 C27           -5.1021    -3.7055    -0.5329 C.2     
  28 C28           -3.8372    -3.5797     0.2766 C.3     
  29 C29           -4.1610    -3.7637     1.7606 C.3     
  30 C30           -5.2078    -2.7322     2.1859 C.3     
  31 O31           -5.7444    -2.7153    -0.8122 O.2     
  32 N32           -5.5197    -4.9183    -0.9465 N.am    
  33 C33           -6.8034    -5.0542    -1.6391 C.3     
  34 C34           -4.7103    -5.1729     1.9918 C.3     
  35 C35           -2.8887    -3.5702     2.5880 C.3     
  36 H36            0.7351    -2.2498     0.9152 H       
  37 H37            1.7026    -1.5109    -0.3875 H       
  38 H38            3.1893     1.0092     1.8355 H       
  39 H39            3.9153    -0.3008     0.8727 H       
  40 H40            3.3400     1.6217    -0.5776 H       
  41 H41            2.3405     0.2097    -0.9898 H       
  42 H42            1.2205     2.5871    -0.6862 H       
  43 H43            1.3347     2.1988     1.0438 H       
  44 H44           -3.8163    -1.5116    -0.2037 H       
  45 H45           -3.2160     4.4715    -3.1849 H       
  46 H46           -0.4121     3.6722     0.8009 H       
  47 H47            3.8272    -2.0779     3.2863 H       
  48 H48            2.6978    -2.5915     4.5626 H       
  49 H49            2.4938    -3.1917     2.8993 H       
  50 H50           -3.1270    -4.3444    -0.0379 H       
  51 H51           -6.1143    -2.8700     1.5965 H       
  52 H52           -5.4385    -2.8633     3.2431 H       
  53 H53           -4.8165    -1.7282     2.0212 H       
  54 H54           -4.9702    -5.7013    -0.7856 H       
  55 H55           -6.9695    -6.1007    -1.8946 H       
  56 H56           -7.6060    -4.7073    -0.9882 H       
  57 H57           -6.7900    -4.4556    -2.5499 H       
  58 H58           -3.9413    -5.9067     1.7502 H       
  59 H59           -5.0017    -5.2824     3.0364 H       
  60 H60           -5.5791    -5.3335     1.3534 H       
  61 H61           -2.4974    -2.5662     2.4233 H       
  62 H62           -3.1193    -3.7013     3.6452 H       
  63 H63           -2.1429    -4.3051     2.2850 H       
@<TRIPOS>BOND
   1    1    2 1
   2    1    7 1
   3    1    8 1
   4    2    3 1
   5    2   10 2
   6    3    4 1
   7    3   36 1
   8    3   37 1
   9    4    5 1
  10    4   23 am
  11    5    6 1
  12    5   38 1
  13    5   39 1
  14    6    7 1
  15    6   40 1
  16    6   41 1
  17    7   42 1
  18    7   43 1
  19    8    9 2
  20    8   14 1
  21    9   10 1
  22   10   11 1
  23   11   12 2
  24   11   13 am
  25   13   28 1
  26   13   44 1
  27   14   15 ar
  28   14   19 ar
  29   15   16 ar
  30   15   22 1
  31   16   17 ar
  32   16   45 1
  33   17   18 ar
  34   17   21 1
  35   18   19 ar
  36   18   20 1
  37   19   46 1
  38   23   24 2
  39   23   25 2
  40   23   26 1
  41   26   47 1
  42   26   48 1
  43   26   49 1
  44   27   31 2
  45   27   32 am
  46   27   28 1
  47   28   29 1
  48   28   50 1
  49   29   30 1
  50   29   34 1
  51   29   35 1
  52   30   51 1
  53   30   52 1
  54   30   53 1
  55   32   33 1
  56   32   54 1
  57   33   55 1
  58   33   56 1
  59   33   57 1
  60   34   58 1
  61   34   59 1
  62   34   60 1
  63   35   61 1
  64   35   62 1
  65   35   63 1

#	End of record

