#	Name: ASD05060032
#	Creating user name:	WinNT
#	Creation time:	15. 06. 2019 20:56

#	Modifying user name:	WinNT
#	Modification time:	15. 06. 2019 20:56

#	Program:	/corina/corina34_cracker 3.40 0067  02.08.2006

@<TRIPOS>MOLECULE
ASD05060032
  54   57    0    0    0
SMALL
NO_CHARGES


@<TRIPOS>ATOM
   1 O1            -0.9860     1.8247    -0.2866 O.3     
   2 C2            -0.5989     0.5468    -0.4234 C.2     
   3 O3             0.5585     0.2875    -0.6534 O.2     
   4 C4            -1.6080    -0.5646    -0.2901 C.3     
   5 C5            -2.6134    -0.4670    -1.4084 C.ar    
   6 C6            -3.8668     0.0676    -1.1746 C.ar    
   7 C7            -4.8063     0.1601    -2.2143 C.ar    
   8 C8            -4.5069    -0.2717    -3.4664 C.ar    
   9 C9            -3.2405    -0.8214    -3.7386 C.ar    
  10 C10           -2.2838    -0.9124    -2.6967 C.ar    
  11 C11           -1.0184    -1.4639    -2.9773 C.ar    
  12 C12           -0.7687    -1.8895    -4.2507 C.ar    
  13 C13           -1.7542    -1.7710    -5.2285 C.ar    
  14 N14           -2.9287    -1.2514    -4.9653 N.ar    
  15 C15           -4.2218     0.5463     0.1837 C.ar    
  16 C16           -4.1625    -0.3246     1.2703 C.ar    
  17 C17           -4.4950     0.1264     2.5287 C.ar    
  18 C18           -4.8908     1.4473     2.7217 C.ar    
  19 C19           -4.9467     2.3159     1.6437 C.ar    
  20 C20           -4.6102     1.8694     0.3795 C.ar    
  21 C21           -5.3598     3.7559     1.8159 C.3     
  22 C22           -6.0919     3.9262     3.1493 C.3     
  23 C23           -5.2601     3.2480     4.2454 C.3     
  24 O24           -5.2201     1.8457     3.9782 O.3     
  25 O25           -0.9395    -1.8257    -0.3592 O.3     
  26 C26           -1.5520    -2.8519     0.4242 C.3     
  27 C27           -2.9604    -3.1268    -0.1067 C.3     
  28 C28           -0.7150    -4.1296     0.3353 C.3     
  29 C29           -1.6364    -2.3980     1.8829 C.3     
  30 H30           -0.3030     2.5028    -0.3805 H       
  31 H31           -2.1205    -0.4770     0.6679 H       
  32 H32           -5.7811     0.5802    -2.0151 H       
  33 H33           -5.2416    -0.1934    -4.2541 H       
  34 H34           -0.2663    -1.5477    -2.2067 H       
  35 H35            0.1914    -2.3169    -4.4996 H       
  36 H36           -1.5430    -2.1116    -6.2314 H       
  37 H37           -3.8571    -1.3503     1.1260 H       
  38 H38           -4.4488    -0.5487     3.3705 H       
  39 H39           -4.6566     2.5466    -0.4605 H       
  40 H40           -4.4741     4.3912     1.8047 H       
  41 H41           -6.0220     4.0434     0.9992 H       
  42 H42           -6.2022     4.9869     3.3750 H       
  43 H43           -7.0746     3.4582     3.0913 H       
  44 H44           -4.2476     3.6516     4.2404 H       
  45 H45           -5.7209     3.4235     5.2174 H       
  46 H46           -2.8941    -3.5672    -1.1015 H       
  47 H47           -3.4727    -3.8175     0.5631 H       
  48 H48           -3.5176    -2.1915    -0.1598 H       
  49 H49            0.2883    -3.9337     0.7135 H       
  50 H50           -1.1822    -4.9123     0.9329 H       
  51 H51           -0.6549    -4.4529    -0.7039 H       
  52 H52           -2.1658    -1.4468     1.9374 H       
  53 H53           -2.1733    -3.1465     2.4658 H       
  54 H54           -0.6304    -2.2776     2.2848 H       
@<TRIPOS>BOND
   1    1    2 1
   2    1   30 1
   3    2    3 2
   4    2    4 1
   5    4    5 1
   6    4   25 1
   7    4   31 1
   8    5    6 ar
   9    5   10 ar
  10    6    7 ar
  11    6   15 1
  12    7    8 ar
  13    7   32 1
  14    8    9 ar
  15    8   33 1
  16    9   10 ar
  17    9   14 ar
  18   10   11 ar
  19   11   12 ar
  20   11   34 1
  21   12   13 ar
  22   12   35 1
  23   13   14 ar
  24   13   36 1
  25   15   16 ar
  26   15   20 ar
  27   16   17 ar
  28   16   37 1
  29   17   18 ar
  30   17   38 1
  31   18   19 ar
  32   18   24 1
  33   19   20 ar
  34   19   21 1
  35   20   39 1
  36   21   22 1
  37   21   40 1
  38   21   41 1
  39   22   23 1
  40   22   42 1
  41   22   43 1
  42   23   24 1
  43   23   44 1
  44   23   45 1
  45   25   26 1
  46   26   27 1
  47   26   28 1
  48   26   29 1
  49   27   46 1
  50   27   47 1
  51   27   48 1
  52   28   49 1
  53   28   50 1
  54   28   51 1
  55   29   52 1
  56   29   53 1
  57   29   54 1

#	End of record

