#	Name: ASD02560406
#	Creating user name:	WinNT
#	Creation time:	15. 06. 2019 20:25

#	Modifying user name:	WinNT
#	Modification time:	15. 06. 2019 20:25

#	Program:	/corina/corina34_cracker 3.40 0067  02.08.2006

@<TRIPOS>MOLECULE
ASD02560406
  46   49    0    0    0
SMALL
NO_CHARGES


@<TRIPOS>ATOM
   1 C1             0.1132     1.1100     1.1370 C.2     
   2 C2             0.2187    -0.2924     1.1339 C.2     
   3 C3             1.3839    -0.8872     0.8089 C.2     
   4 N4             2.4802    -0.1373     0.4770 N.pl3   
   5 C5             2.4070     1.2370     0.4708 C.2     
   6 C6             1.1922     1.8695     0.8099 C.2     
   7 C7             3.7541    -0.4785     0.1156 C.2     
   8 C8             4.4356     0.6998    -0.1049 C.2     
   9 N9             3.5876     1.7200     0.1199 N.2     
  10 C10            5.8537     0.8213    -0.5173 C.ar    
  11 N11            4.2662    -1.7712    -0.0067 N.3     
  12 C12            3.2016    -2.7742     0.1290 C.3     
  13 C13            3.6272    -4.0674    -0.5691 C.3     
  14 C14            6.8423     0.0947     0.1488 C.ar    
  15 C15            2.9507    -3.0541     1.6121 C.3     
  16 C16            1.8419    -4.0988     1.7535 C.3     
  17 C17            2.2675    -5.3920     1.0554 C.3     
  18 C18            2.5184    -5.1121    -0.4277 C.3     
  19 C19            8.1631     0.2125    -0.2416 C.ar    
  20 C20            8.5055     1.0479    -1.2893 C.ar    
  21 C21            7.5303     1.7708    -1.9530 C.ar    
  22 C22            6.2062     1.6580    -1.5769 C.ar    
  23 F23            6.5090    -0.7213     1.1727 F       
  24 Cl24           4.9845     2.5658    -2.4117 Cl      
  25 C25            9.2321    -0.5704     0.4762 C.3     
  26 H26           -0.8235     1.5821     1.3941 H       
  27 H27           -0.6384    -0.8961     1.3937 H       
  28 H28            1.4533    -1.9649     0.8107 H       
  29 H29            1.1202     2.9471     0.8097 H       
  30 H30            4.7597    -1.8835    -0.8796 H       
  31 H31            2.2872    -2.3978    -0.3295 H       
  32 H32            3.8060    -3.8680    -1.6257 H       
  33 H33            4.5417    -4.4438    -0.1107 H       
  34 H34            3.8652    -3.4305     2.0706 H       
  35 H35            2.6475    -2.1328     2.1095 H       
  36 H36            1.6631    -4.2982     2.8101 H       
  37 H37            0.9274    -3.7224     1.2951 H       
  38 H38            3.1819    -5.7684     1.5139 H       
  39 H39            1.4775    -6.1362     1.1561 H       
  40 H40            1.6039    -4.7357    -0.8862 H       
  41 H41            2.8216    -6.0334    -0.9251 H       
  42 H42            9.5388     1.1366    -1.5906 H       
  43 H43            7.8046     2.4219    -2.7698 H       
  44 H44            9.3640    -1.5365    -0.0112 H       
  45 H45           10.1705    -0.0168     0.4453 H       
  46 H46            8.9351    -0.7244     1.5136 H       
@<TRIPOS>BOND
   1    1    2 1
   2    1    6 2
   3    1   26 1
   4    2    3 2
   5    2   27 1
   6    3    4 1
   7    3   28 1
   8    4    5 1
   9    4    7 1
  10    5    6 1
  11    5    9 2
  12    6   29 1
  13    7    8 2
  14    7   11 1
  15    8    9 1
  16    8   10 1
  17   10   14 ar
  18   10   22 ar
  19   11   12 1
  20   11   30 1
  21   12   13 1
  22   12   15 1
  23   12   31 1
  24   13   18 1
  25   13   32 1
  26   13   33 1
  27   14   19 ar
  28   14   23 1
  29   15   16 1
  30   15   34 1
  31   15   35 1
  32   16   17 1
  33   16   36 1
  34   16   37 1
  35   17   18 1
  36   17   38 1
  37   17   39 1
  38   18   40 1
  39   18   41 1
  40   19   20 ar
  41   19   25 1
  42   20   21 ar
  43   20   42 1
  44   21   22 ar
  45   21   43 1
  46   22   24 1
  47   25   44 1
  48   25   45 1
  49   25   46 1

#	End of record

