#	Name: ASD00170551
#	Creating user name:	WinNT
#	Creation time:	15. 06. 2019 18:32

#	Modifying user name:	WinNT
#	Modification time:	15. 06. 2019 18:32

#	Program:	/corina/corina34_cracker 3.40 0067  02.08.2006

@<TRIPOS>MOLECULE
ASD00170551
  50   53    0    0    0
SMALL
NO_CHARGES


@<TRIPOS>ATOM
   1 C1            -0.8230     1.7226     0.0092 C.ar    
   2 N2            -0.6389     0.3365     0.0273 N.3     
   3 C3             0.1446    -0.1059    -1.1346 C.3     
   4 C4             0.3912    -1.6132    -1.0363 C.3     
   5 N5            -0.8985    -2.3151    -0.9762 N.3     
   6 C6            -1.6820    -1.8727     0.1857 C.3     
   7 C7            -1.9286    -0.3654     0.0874 C.3     
   8 C8            -0.7050    -3.7712    -0.9572 C.3     
   9 C9            -2.0159    -4.4481    -0.6499 C.2     
  10 C10           -2.3376    -4.9023     0.5513 C.2     
  11 S11           -3.9349    -5.6277     0.5399 S.3     
  12 C12           -4.1545    -5.3031    -1.1189 C.2     
  13 C13           -3.0532    -4.6618    -1.6370 C.2     
  14 C14           -2.9387    -4.2493    -3.0357 C.2     
  15 O15           -3.2801    -3.1293    -3.3701 O.2     
  16 C16           -2.4084    -5.1925    -4.0437 C.ar    
  17 C17           -2.3991    -4.8418    -5.3950 C.ar    
  18 C18           -1.9033    -5.7255    -6.3304 C.ar    
  19 C19           -1.4153    -6.9589    -5.9315 C.ar    
  20 C20           -1.4220    -7.3124    -4.5923 C.ar    
  21 C21           -1.9099    -6.4348    -3.6472 C.ar    
  22 Cl22          -0.7934    -8.0664    -7.1149 Cl      
  23 N23           -5.2834    -5.6329    -1.8411 N.pl3   
  24 C24            0.2759     2.5707     0.0332 C.ar    
  25 C25            0.0922     3.9402     0.0153 C.ar    
  26 C26           -1.1844     4.4684    -0.0260 C.ar    
  27 C27           -2.2847     3.6272    -0.0497 C.ar    
  28 C28           -2.1069     2.2543    -0.0387 C.ar    
  29 F29           -3.5313     4.1466    -0.0896 F       
  30 F30           -3.1792     1.4327    -0.0617 F       
  31 H31           -0.4060     0.1136    -2.0494 H       
  32 H32            1.1000     0.4187    -1.1501 H       
  33 H33            0.9473    -1.9486    -1.9117 H       
  34 H34            0.9654    -1.8297    -0.1354 H       
  35 H35           -2.6373    -2.3972     0.2012 H       
  36 H36           -1.1314    -2.0921     1.1005 H       
  37 H37           -2.4847    -0.0300     0.9628 H       
  38 H38           -2.5027    -0.1488    -0.8135 H       
  39 H39           -0.3445    -4.1025    -1.9310 H       
  40 H40            0.0261    -4.0306    -0.1916 H       
  41 H41           -1.7015    -4.8358     1.4216 H       
  42 H42           -2.7796    -3.8805    -5.7072 H       
  43 H43           -1.8959    -5.4555    -7.3761 H       
  44 H44           -1.0403    -8.2755    -4.2872 H       
  45 H45           -1.9143    -6.7113    -2.6032 H       
  46 H46           -5.9908    -6.1505    -1.4257 H       
  47 H47           -5.3694    -5.3471    -2.7640 H       
  48 H48            1.2743     2.1601     0.0662 H       
  49 H49            0.9478     4.5990     0.0340 H       
  50 H50           -1.3243     5.5392    -0.0396 H       
@<TRIPOS>BOND
   1    1    2 1
   2    1   24 ar
   3    1   28 ar
   4    2    3 1
   5    2    7 1
   6    3    4 1
   7    3   31 1
   8    3   32 1
   9    4    5 1
  10    4   33 1
  11    4   34 1
  12    5    6 1
  13    5    8 1
  14    6    7 1
  15    6   35 1
  16    6   36 1
  17    7   37 1
  18    7   38 1
  19    8    9 1
  20    8   39 1
  21    8   40 1
  22    9   10 2
  23    9   13 1
  24   10   11 1
  25   10   41 1
  26   11   12 1
  27   12   13 2
  28   12   23 1
  29   13   14 1
  30   14   15 2
  31   14   16 1
  32   16   17 ar
  33   16   21 ar
  34   17   18 ar
  35   17   42 1
  36   18   19 ar
  37   18   43 1
  38   19   20 ar
  39   19   22 1
  40   20   21 ar
  41   20   44 1
  42   21   45 1
  43   23   46 1
  44   23   47 1
  45   24   25 ar
  46   24   48 1
  47   25   26 ar
  48   25   49 1
  49   26   27 ar
  50   26   50 1
  51   27   28 ar
  52   27   29 1
  53   28   30 1

#	End of record

