#	Name: ASD01918462
#	Creating user name:	WinNT
#	Creation time:	15. 06. 2019 20:11

#	Modifying user name:	WinNT
#	Modification time:	15. 06. 2019 20:11

#	Program:	/corina/corina34_cracker 3.40 0067  02.08.2006

@<TRIPOS>MOLECULE
ASD01918462
  40   43    0    0    0
SMALL
NO_CHARGES


@<TRIPOS>ATOM
   1 F1             0.0069    -0.0040    -0.0011 F       
   2 C2            -0.0129     1.3468     0.0076 C.ar    
   3 C3            -0.4038     2.0396    -1.1249 C.ar    
   4 C4            -0.4249     3.4211    -1.1185 C.ar    
   5 C5            -0.0542     4.1158     0.0251 C.ar    
   6 C6             0.3376     3.4204     1.1617 C.ar    
   7 C7             0.3530     2.0377     1.1534 C.ar    
   8 F8             0.7294     1.3598     2.2597 F       
   9 N9            -0.0748     5.5149     0.0324 N.am    
  10 C10            1.1889     6.2365     0.1240 C.3     
  11 C11            1.2299     7.4632    -0.7890 C.3     
  12 C12           -0.0603     8.2258    -0.6377 C.2     
  13 N13           -0.3298     9.5135    -0.7791 N.2     
  14 C14           -1.6078     9.7050    -0.5551 C.2     
  15 C15           -2.3152    11.0341    -0.6194 C.3     
  16 O16           -2.7979    11.2532    -1.9464 O.3     
  17 C17           -3.4646    12.4148    -2.1765 C.ar    
  18 C18           -3.6453    13.3278    -1.1477 C.ar    
  19 C19           -4.3229    14.5082    -1.3843 C.ar    
  20 C20           -4.8212    14.7798    -2.6451 C.ar    
  21 C21           -4.6428    13.8714    -3.6721 C.ar    
  22 C22           -3.9605    12.6924    -3.4421 C.ar    
  23 O23           -2.1865     8.5302    -0.2604 O.3     
  24 C24           -1.2333     7.5945    -0.2999 C.2     
  25 C25           -1.2662     6.1504    -0.0513 C.2     
  26 O26           -2.3178     5.5515     0.0776 O.2     
  27 H27           -0.6923     1.4998    -2.0147 H       
  28 H28           -0.7295     3.9606    -2.0031 H       
  29 H29            0.6267     3.9589     2.0521 H       
  30 H30            1.3370     6.5588     1.1546 H       
  31 H31            2.0002     5.5634    -0.1531 H       
  32 H32            2.0668     8.1015    -0.5056 H       
  33 H33            1.3461     7.1439    -1.8247 H       
  34 H34           -3.1539    11.0334     0.0768 H       
  35 H35           -1.6199    11.8291    -0.3498 H       
  36 H36           -3.2568    13.1157    -0.1625 H       
  37 H37           -4.4638    15.2192    -0.5837 H       
  38 H38           -5.3510    15.7030    -2.8280 H       
  39 H39           -5.0333    14.0857    -4.6559 H       
  40 H40           -3.8176    11.9851    -4.2457 H       
@<TRIPOS>BOND
   1    1    2 1
   2    2    7 ar
   3    2    3 ar
   4    3    4 ar
   5    3   27 1
   6    4    5 ar
   7    4   28 1
   8    5    6 ar
   9    5    9 1
  10    6    7 ar
  11    6   29 1
  12    7    8 1
  13    9   25 am
  14    9   10 1
  15   10   11 1
  16   10   30 1
  17   10   31 1
  18   11   12 1
  19   11   32 1
  20   11   33 1
  21   12   24 2
  22   12   13 1
  23   13   14 2
  24   14   15 1
  25   14   23 1
  26   15   16 1
  27   15   34 1
  28   15   35 1
  29   16   17 1
  30   17   22 ar
  31   17   18 ar
  32   18   19 ar
  33   18   36 1
  34   19   20 ar
  35   19   37 1
  36   20   21 ar
  37   20   38 1
  38   21   22 ar
  39   21   39 1
  40   22   40 1
  41   23   24 1
  42   24   25 1
  43   25   26 2

#	End of record

