#	Name: ASD00431182
#	Creating user name:	WinNT
#	Creation time:	15. 06. 2019 18:35

#	Modifying user name:	WinNT
#	Modification time:	15. 06. 2019 18:35

#	Program:	/corina/corina34_cracker 3.40 0067  02.08.2006

@<TRIPOS>MOLECULE
ASD00431182
  51   53    0    0    0
SMALL
NO_CHARGES


@<TRIPOS>ATOM
   1 C1            -1.3247     1.6363    -1.9204 C.2     
   2 N2            -1.0519     0.3512    -1.6196 N.am    
   3 O3            -0.4213     2.4005    -2.1967 O.2     
   4 O4            -2.5986     2.0720    -1.9202 O.3     
   5 C5             0.3337    -0.1244    -1.6257 C.3     
   6 C6             0.9822     0.1766    -0.2730 C.3     
   7 O7            -0.4949    -2.5176    -1.3672 O.3     
   8 N8            -0.2326    -3.6369    -1.7417 N.2     
   9 C9             0.8089    -3.6436    -2.5367 C.2     
  10 C10            1.2306    -2.2889    -2.6469 C.2     
  11 C11            0.3536    -1.6109    -1.8726 C.2     
  12 C12            2.5969    -4.6921    -3.9292 C.ar    
  13 C13            1.4248    -4.8251    -3.1895 C.ar    
  14 C14            0.8364    -6.0887    -3.0701 C.ar    
  15 C15            1.4466    -7.1590    -3.6952 C.ar    
  16 C16            2.6160    -6.9474    -4.4166 C.ar    
  17 N17            3.1473    -5.7388    -4.5101 N.ar    
  18 O18            3.2207    -7.9935    -5.0324 O.3     
  19 C19            4.4965    -7.6681    -7.0182 C.ar    
  20 C20            4.4176    -7.7723    -5.6386 C.ar    
  21 C21            5.5788    -7.6473    -4.8811 C.ar    
  22 C22            6.7746    -7.4223    -5.5403 C.ar    
  23 C23            6.7767    -7.3293    -6.9257 C.ar    
  24 N24            5.6541    -7.4531    -7.6134 N.ar    
  25 O25            7.9446    -7.1083    -7.5816 O.3     
  26 C26            7.8821    -7.0225    -9.0067 C.3     
  27 C27            7.6439    -5.5688    -9.4201 C.3     
  28 C28            9.2016    -7.5133    -9.6055 C.3     
  29 C29           -2.8179     3.4680    -2.2537 C.3     
  30 H30           -1.7731    -0.2589    -1.3991 H       
  31 H31            0.8884     0.3826    -2.4153 H       
  32 H32            2.0132    -0.1772    -0.2776 H       
  33 H33            0.9678     1.2518    -0.0944 H       
  34 H34            0.4276    -0.3303     0.5166 H       
  35 H35            2.0589    -1.8941    -3.2164 H       
  36 H36            3.0571    -3.7205    -4.0315 H       
  37 H37           -0.0726    -6.2243    -2.5028 H       
  38 H38            1.0203    -8.1488    -3.6240 H       
  39 H39            3.6008    -7.7684    -7.6132 H       
  40 H40            5.5472    -7.7237    -3.8043 H       
  41 H41            7.6947    -7.3199    -4.9841 H       
  42 H42            7.0640    -7.6429    -9.3725 H       
  43 H43            6.7038    -5.2190    -8.9935 H       
  44 H44            8.4620    -4.9483    -9.0543 H       
  45 H45            7.5962    -5.5033   -10.5071 H       
  46 H46            9.3713    -8.5490    -9.3110 H       
  47 H47            9.1540    -7.4479   -10.6925 H       
  48 H48           10.0197    -6.8929    -9.2397 H       
  49 H49           -2.2923     4.0996    -1.5374 H       
  50 H50           -2.4410     3.6655    -3.2572 H       
  51 H51           -3.8850     3.6871    -2.2167 H       
@<TRIPOS>BOND
   1    1    2 am
   2    1    3 2
   3    1    4 1
   4    2    5 1
   5    2   30 1
   6    4   29 1
   7    5    6 1
   8    5   11 1
   9    5   31 1
  10    6   32 1
  11    6   33 1
  12    6   34 1
  13    7    8 1
  14    7   11 1
  15    8    9 2
  16    9   10 1
  17    9   13 1
  18   10   11 2
  19   10   35 1
  20   12   13 ar
  21   12   17 ar
  22   12   36 1
  23   13   14 ar
  24   14   15 ar
  25   14   37 1
  26   15   16 ar
  27   15   38 1
  28   16   17 ar
  29   16   18 1
  30   18   20 1
  31   19   20 ar
  32   19   24 ar
  33   19   39 1
  34   20   21 ar
  35   21   22 ar
  36   21   40 1
  37   22   23 ar
  38   22   41 1
  39   23   24 ar
  40   23   25 1
  41   25   26 1
  42   26   27 1
  43   26   28 1
  44   26   42 1
  45   27   43 1
  46   27   44 1
  47   27   45 1
  48   28   46 1
  49   28   47 1
  50   28   48 1
  51   29   49 1
  52   29   50 1
  53   29   51 1

#	End of record

