#	Name: ASD06610090
#	Creating user name:	WinNT
#	Creation time:	15. 06. 2019 21:07

#	Modifying user name:	WinNT
#	Modification time:	15. 06. 2019 21:07

#	Program:	/corina/corina34_cracker 3.40 0067  02.08.2006

@<TRIPOS>MOLECULE
ASD06610090
 375  375    0    0    0
SMALL
NO_CHARGES


@<TRIPOS>ATOM
   1 C1            -0.7094    -1.9701    -1.8902 C.2     
   2 O2            -0.8970    -3.1244    -1.5689 O.2     
   3 N3             1.5838    -2.6605    -2.2823 N.am    
   4 C4             0.6611    -1.5235    -2.3298 C.3     
   5 C5             0.5878    -0.9856    -3.7603 C.3     
   6 C6             1.9301    -0.4266    -4.1561 C.ar    
   7 C7             2.8689    -1.2436    -4.7579 C.ar    
   8 C8             4.1002    -0.7308    -5.1210 C.ar    
   9 C9             4.3926     0.5991    -4.8827 C.ar    
  10 C10            3.4535     1.4163    -4.2818 C.ar    
  11 C11            2.2206     0.9046    -3.9226 C.ar    
  12 C12           -4.1011    -0.6150    -2.0422 C.2     
  13 O13           -3.7613     0.3056    -2.7549 O.2     
  14 N14           -1.7279    -1.0880    -1.8595 N.am    
  15 C15           -3.0617    -1.5234    -1.4379 C.3     
  16 C16           -3.1586    -1.4652     0.0879 C.3     
  17 C17           -2.1896    -2.4791     0.6996 C.3     
  18 C18           -2.2865    -2.4209     2.2254 C.3     
  19 N19           -1.3587    -3.3917     2.8110 N.pl3   
  20 C20           -1.2699    -3.5203     4.1769 C.2     
  21 N21           -2.0112    -2.7784     4.9509 N.2     
  22 N22           -0.3992    -4.4313     4.7265 N.pl3   
  23 C23           -7.6602     0.0390    -1.5240 C.2     
  24 O24           -7.6971    -0.6447    -0.5229 O.2     
  25 N25           -5.4084    -0.8255    -1.7907 N.am    
  26 C26           -6.4188     0.0577    -2.3783 C.3     
  27 C27           -6.7626    -0.4275    -3.7880 C.3     
  28 C28           -5.5330    -0.2910    -4.6883 C.3     
  29 C29           -5.8768    -0.7761    -6.0980 C.3     
  30 C30           -4.6472    -0.6397    -6.9983 C.3     
  31 N31           -4.9773    -1.1055    -8.3518 N.3     
  32 C32          -11.1313     1.1273    -1.8847 C.2     
  33 O33          -10.9892     1.3768    -3.0630 O.2     
  34 N34           -8.7292     0.7821    -1.8724 N.am    
  35 C35           -9.9360     0.7639    -1.0419 C.3     
  36 C36           -9.7874     1.7761     0.0958 C.3     
  37 C37           -8.6515     1.3385     1.0227 C.3     
  38 C38           -8.5052     2.3354     2.1432 C.2     
  39 O39           -9.2346     3.2973     2.1952 O.2     
  40 O40           -7.5646     2.1549     3.0836 O.3     
  41 C41          -14.5999     2.1023    -1.2676 C.2     
  42 O42          -14.4168     2.2062    -0.0732 O.2     
  43 N43          -12.3582     1.1749    -1.3290 N.am    
  44 C44          -13.5202     1.5281    -2.1482 C.3     
  45 C45          -14.0479     0.2761    -2.8516 C.3     
  46 C46          -12.9970    -0.2354    -3.8389 C.3     
  47 C47          -13.5247    -1.4875    -4.5423 C.3     
  48 N48          -12.5184    -1.9773    -5.4877 N.pl3   
  49 C49          -12.7709    -3.0998    -6.2402 C.2     
  50 N50          -13.9056    -3.7283    -6.1125 N.2     
  51 N51          -11.8266    -3.5594    -7.1274 N.pl3   
  52 C52          -18.1754     2.5054    -1.4938 C.2     
  53 O53          -18.2148     1.9020    -2.5451 O.2     
  54 N54          -15.7690     2.5003    -1.8072 N.am    
  55 C55          -16.8529     2.9710    -0.9413 C.3     
  56 C56          -16.8335     4.4999    -0.8852 C.3     
  57 C57          -16.8188     5.0623    -2.3080 C.3     
  58 C58          -18.1562     4.7632    -2.9884 C.3     
  59 C59          -15.5820     4.9670    -0.1392 C.3     
  60 C60          -21.6952     3.2297    -0.8233 C.2     
  61 O61          -21.4217     4.1089    -0.0340 O.2     
  62 N62          -19.3144     2.7596    -0.8196 N.am    
  63 C63          -20.6046     2.3521    -1.3814 C.3     
  64 C64          -20.8842     0.8940    -1.0119 C.3     
  65 C65          -19.8473    -0.0098    -1.6820 C.3     
  66 C66          -20.1227    -1.4460    -1.3180 C.2     
  67 O67          -21.0527    -1.7188    -0.5966 O.2     
  68 O68          -19.3346    -2.4222    -1.7953 O.3     
  69 C69          -25.3619     3.4715    -1.2366 C.2     
  70 O70          -25.4168     2.5508    -2.0242 O.2     
  71 N71          -22.9745     3.0375    -1.2013 N.am    
  72 C72          -24.0347     3.8907    -0.6587 C.3     
  73 C73          -28.7313     4.8791    -1.4071 C.2     
  74 O74          -28.3686     5.9460    -0.9585 O.2     
  75 N75          -26.4878     4.1198    -0.8783 N.am    
  76 C76          -27.7780     3.7124    -1.4401 C.3     
  77 C77          -28.3532     2.5604    -0.6136 C.3     
  78 C78          -27.4478     1.3344    -0.7482 C.3     
  79 C79          -27.9531     0.2235     0.1745 C.3     
  80 C80          -27.4674     0.8425    -2.1969 C.3     
  81 C81          -32.3312     5.3611    -1.8206 C.2     
  82 O82          -32.5465     4.1676    -1.8296 O.2     
  83 N83          -29.9868     4.7371    -1.8762 N.am    
  84 C84          -30.9134     5.8713    -1.8441 C.3     
  85 C85          -30.7034     6.7367    -3.0883 C.3     
  86 C86          -29.3047     7.3555    -3.0489 C.3     
  87 C87          -29.0947     8.2210    -4.2930 C.3     
  88 N88          -27.7554     8.8135    -4.2554 N.pl3   
  89 C89          -27.3385     9.6356    -5.2754 C.2     
  90 N90          -26.1469    10.1628    -5.2419 N.2     
  91 N91          -28.1784     9.9016    -6.3308 N.pl3   
  92 C92          -35.6590     6.7836    -2.3362 C.2     
  93 O93          -35.2082     7.8409    -2.7232 O.2     
  94 N94          -33.3601     6.2312    -1.7894 N.am    
  95 C95          -34.7384     5.7352    -1.7665 C.3     
  96 C96          -35.1459     5.4280    -0.3241 C.3     
  97 C97          -34.2926     4.2771     0.2128 C.3     
  98 C98          -34.7002     3.9699     1.6552 C.3     
  99 C99          -33.8469     2.8190     2.1921 C.3     
 100 N100         -34.2382     2.5240     3.5770 N.3     
 101 C101         -39.2666     7.3682    -2.4173 C.2     
 102 O102         -39.4867     6.4654    -1.6379 O.2     
 103 N103         -36.9833     6.5462    -2.4155 N.am    
 104 C104         -37.8783     7.5653    -2.9694 C.3     
 105 C105         -37.9130     7.4394    -4.4938 C.3     
 106 C106         -36.5303     7.7621    -5.0638 C.3     
 107 C107         -36.5651     7.6363    -6.5882 C.3     
 108 N108         -35.2412     7.9452    -7.1341 N.pl3   
 109 C109         -35.0291     7.8975    -8.4916 C.2     
 110 N110         -33.8511     8.1724    -8.9772 N.2     
 111 N111         -36.0594     7.5600    -9.3369 N.pl3   
 112 C112         -42.6217     8.5833    -3.2109 C.2     
 113 O113         -42.2497     9.1050    -4.2407 O.2     
 114 N114         -40.2635     8.1953    -2.7895 N.am    
 115 C115         -41.6131     8.0037    -2.2528 C.3     
 116 C116         -41.7293     8.7104    -0.9008 C.3     
 117 C117         -40.7939     8.0398     0.1073 C.3     
 118 C118         -40.9101     8.7464     1.4593 C.3     
 119 N119         -40.0144     8.1043     2.4245 N.pl3   
 120 C120         -39.9474     8.5708     3.7160 C.2     
 121 N121         -39.1505     7.9995     4.5748 N.2     
 122 N122         -40.7210     9.6399     4.1018 N.pl3   
 123 C123         -46.1704     9.4541    -3.1030 C.2     
 124 O124         -46.2377     9.2648    -1.9069 O.2     
 125 N125         -43.9370     8.5219    -2.9234 N.am    
 126 C126         -44.9174     9.0854    -3.8548 C.3     
 127 C127         -45.2537     8.0497    -4.9296 C.3     
 128 C128         -44.0090     7.7679    -5.7736 C.3     
 129 C129         -44.3453     6.7322    -6.8483 C.3     
 130 N130         -43.1535     6.4625    -7.6565 N.pl3   
 131 C131         -43.2143     5.5586    -8.6906 C.2     
 132 N132         -44.3323     4.9416    -8.9519 N.2     
 133 N133         -42.0959     5.3054    -9.4490 N.pl3   
 134 C134         -49.6085    10.3400    -3.9730 C.2     
 135 O135         -49.4443    10.0594    -5.1414 O.2     
 136 N136         -47.2161     9.9941    -3.7597 N.am    
 137 C137         -48.4341    10.3525    -3.0288 C.3     
 138 C138         -48.2763    11.7514    -2.4296 C.3     
 139 C139         -47.1642    11.7337    -1.3790 C.3     
 140 C140         -46.9212    13.1558    -0.8695 C.3     
 141 C141         -47.5804    10.8376    -0.2108 C.3     
 142 C142         -53.0603    11.5418    -3.9108 C.2     
 143 O143         -52.8910    12.1435    -2.8715 O.2     
 144 N144         -50.8414    10.6408    -3.5191 N.am    
 145 C145         -51.9831    10.6286    -4.4369 C.3     
 146 C146         -52.5317     9.2048    -4.5498 C.3     
 147 C147         -51.4803     8.3032    -5.1997 C.3     
 148 C148         -51.9785     6.8566    -5.1994 C.3     
 149 C149         -51.2377     8.7588    -6.6400 C.3     
 150 C150         -56.5971    12.1362    -4.6187 C.2     
 151 O151         -56.6686    11.1785    -5.3518 O.2     
 152 N152         -54.2119    11.6898    -4.5953 N.am    
 153 C153         -55.2591    12.5775    -4.0839 C.3     
 154 C154         -54.9772    14.0119    -4.5356 C.3     
 155 O155         -57.7094    12.8072    -4.2806 O.3     
 156 C156           2.9065    -2.4492    -2.1330 C.2     
 157 O157           3.3329    -1.3178    -2.0379 O.2     
 158 C158          20.6201    -8.3491    -0.5181 C.3     
 159 C159          19.6565    -7.1617    -0.5677 C.3     
 160 C160          18.2251    -7.6734    -0.7418 C.3     
 161 C161          17.2616    -6.4859    -0.7914 C.3     
 162 C162          15.8302    -6.9976    -0.9655 C.3     
 163 C163          14.8666    -5.8102    -1.0151 C.3     
 164 C164          13.4353    -6.3218    -1.1892 C.3     
 165 C165          12.4717    -5.1344    -1.2389 C.3     
 166 C166          11.0403    -5.6461    -1.4130 C.3     
 167 C167          10.0768    -4.4587    -1.4626 C.3     
 168 C168           8.6454    -4.9703    -1.6367 C.3     
 169 C169           7.6818    -3.7829    -1.6863 C.3     
 170 C170           6.2505    -4.2946    -1.8604 C.3     
 171 C171           5.2869    -3.1071    -1.9100 C.3     
 172 C172           3.8555    -3.6188    -2.0841 C.3     
 173 H173           1.2427    -3.5654    -2.3583 H       
 174 H174           1.0182    -0.7378    -1.6640 H       
 175 H175           0.3165    -1.7942    -4.4390 H       
 176 H176          -0.1639    -0.1982    -3.8143 H       
 177 H177           2.6405    -2.2826    -4.9440 H       
 178 H178           4.8339    -1.3693    -5.5904 H       
 179 H179           5.3548     0.9995    -5.1657 H       
 180 H180           3.6820     2.4552    -4.0953 H       
 181 H181           1.4855     1.5439    -3.4565 H       
 182 H182          -1.5779    -0.1647    -2.1165 H       
 183 H183          -3.2332    -2.5460    -1.7741 H       
 184 H184          -2.9001    -0.4633     0.4305 H       
 185 H185          -4.1764    -1.7035     0.3967 H       
 186 H186          -2.4481    -3.4811     0.3570 H       
 187 H187          -1.1717    -2.2409     0.3908 H       
 188 H188          -2.0280    -1.4190     2.5679 H       
 189 H189          -3.3043    -2.6591     2.5341 H       
 190 H190          -0.8070    -3.9438     2.2350 H       
 191 H191          -1.9486    -2.8691     5.9146 H       
 192 H192           0.1525    -4.9834     4.1505 H       
 193 H193          -0.3366    -4.5220     5.6902 H       
 194 H194          -5.6801    -1.5618    -1.2207 H       
 195 H195          -6.0279     1.0739    -2.4290 H       
 196 H196          -7.0693    -1.4727    -3.7479 H       
 197 H197          -7.5767     0.1749    -4.1911 H       
 198 H198          -5.2263     0.7542    -4.7284 H       
 199 H199          -4.7189    -0.8933    -4.2852 H       
 200 H200          -6.1835    -1.8213    -6.0579 H       
 201 H201          -6.6909    -0.1738    -6.5011 H       
 202 H202          -4.3405     0.4055    -7.0384 H       
 203 H203          -3.8331    -1.2420    -6.5952 H       
 204 H204          -4.1807    -1.0254    -8.9660 H       
 205 H205          -5.3260    -2.0521    -8.3335 H       
 206 H206          -8.6997     1.3289    -2.6730 H       
 207 H207         -10.0751    -0.2335    -0.6249 H       
 208 H208          -9.5600     2.7581    -0.3190 H       
 209 H209         -10.7182     1.8270     0.6607 H       
 210 H210          -8.8789     0.3565     1.4374 H       
 211 H211          -7.7207     1.2876     0.4578 H       
 212 H212          -7.5089     2.8209     3.7825 H       
 213 H213         -12.4719     0.9753    -0.3865 H       
 214 H214         -13.2279     2.2677    -2.8937 H       
 215 H215         -14.2568    -0.4959    -2.1110 H       
 216 H216         -14.9637     0.5204    -3.3899 H       
 217 H217         -12.7881     0.5366    -4.5795 H       
 218 H218         -12.0812    -0.4798    -3.3006 H       
 219 H219         -13.7336    -2.2595    -3.8017 H       
 220 H220         -14.4404    -1.2431    -5.0806 H       
 221 H221         -11.6739    -1.5095    -5.5827 H       
 222 H222         -14.0838    -4.5203    -6.6434 H       
 223 H223         -10.9821    -3.0917    -7.2224 H       
 224 H224         -12.0047    -4.3514    -7.6583 H       
 225 H225         -15.8928     2.4751    -2.7690 H       
 226 H226         -16.7167     2.5688     0.0626 H       
 227 H227         -17.7217     4.8556    -0.3630 H       
 228 H228         -16.6632     6.1405    -2.2709 H       
 229 H229         -16.0113     4.5979    -2.8740 H       
 230 H230         -18.2485     5.3686    -3.8901 H       
 231 H231         -18.2006     3.7070    -3.2539 H       
 232 H232         -18.9722     5.0010    -2.3061 H       
 233 H233         -14.6957     4.7067    -0.7180 H       
 234 H234         -15.6225     6.0476    -0.0028 H       
 235 H235         -15.5362     4.4793     0.8345 H       
 236 H236         -19.2800     3.2123     0.0376 H       
 237 H237         -20.5766     2.4530    -2.4664 H       
 238 H238         -20.8243     0.7755     0.0700 H       
 239 H239         -21.8818     0.6175    -1.3530 H       
 240 H240         -19.9072     0.1087    -2.7639 H       
 241 H241         -18.8497     0.2667    -1.3409 H       
 242 H242         -19.5507    -3.3279    -1.5342 H       
 243 H243         -23.1933     2.3343    -1.8326 H       
 244 H244         -23.8356     4.9295    -0.9220 H       
 245 H245         -24.0627     3.7898     0.4262 H       
 246 H246         -26.4439     4.8562    -0.2484 H       
 247 H247         -27.6388     3.3860    -2.4707 H       
 248 H248         -28.4095     2.8573     0.4336 H       
 249 H249         -29.3517     2.3163    -0.9762 H       
 250 H250         -26.4288     1.6029    -0.4695 H       
 251 H251         -28.9721    -0.0450    -0.1043 H       
 252 H252         -27.3081    -0.6499     0.0786 H       
 253 H253         -27.9391     0.5739     1.2065 H       
 254 H254         -28.4864     0.5740    -2.4756 H       
 255 H255         -27.1075     1.6340    -2.8542 H       
 256 H256         -26.8224    -0.0309    -2.2928 H       
 257 H257         -30.2768     3.8838    -2.2350 H       
 258 H258         -30.7270     6.4677    -0.9510 H       
 259 H259         -30.8027     6.1195    -3.9812 H       
 260 H260         -31.4510     7.5296    -3.1097 H       
 261 H261         -29.2055     7.9728    -2.1560 H       
 262 H262         -28.5571     6.5626    -3.0274 H       
 263 H263         -29.1940     7.6038    -5.1859 H       
 264 H264         -29.8423     9.0139    -4.3145 H       
 265 H265         -27.1628     8.6258    -3.5107 H       
 266 H266         -25.8528    10.7428    -5.9616 H       
 267 H267         -29.0652     9.5093    -6.3557 H       
 268 H268         -27.8843    10.4816    -7.0505 H       
 269 H269         -33.1879     7.1858    -1.7821 H       
 270 H270         -34.8076     4.8269    -2.3650 H       
 271 H271         -34.9922     6.3131     0.2933 H       
 272 H272         -36.1979     5.1440    -0.2964 H       
 273 H273         -34.4464     3.3921    -0.4045 H       
 274 H274         -33.2407     4.5611     0.1852 H       
 275 H275         -34.5464     4.8549     2.2726 H       
 276 H276         -35.7522     3.6859     1.6829 H       
 277 H277         -34.0007     1.9340     1.5748 H       
 278 H278         -32.7949     3.1030     2.1645 H       
 279 H279         -33.6886     1.7668     3.9545 H       
 280 H280         -34.1660     3.3470     4.1563 H       
 281 H281         -37.3438     5.7005    -2.1060 H       
 282 H282         -37.5152     8.5556    -2.6947 H       
 283 H283         -38.1907     6.4217    -4.7681 H       
 284 H284         -38.6452     8.1377    -4.8994 H       
 285 H285         -36.2527     8.7798    -4.7895 H       
 286 H286         -35.7982     7.0638    -4.6582 H       
 287 H287         -36.8428     6.6186    -6.8626 H       
 288 H288         -37.2973     8.3345    -6.9938 H       
 289 H289         -34.5142     8.1834    -6.5377 H       
 290 H290         -33.7015     8.1388    -9.9350 H       
 291 H291         -36.9360     7.3554    -8.9755 H       
 292 H292         -35.9098     7.5264   -10.2947 H       
 293 H293         -40.0874     8.9173    -3.4129 H       
 294 H294         -41.8050     6.9385    -2.1237 H       
 295 H295         -41.4510     9.7582    -1.0134 H       
 296 H296         -42.7568     8.6437    -0.5431 H       
 297 H297         -41.0722     6.9919     0.2199 H       
 298 H298         -39.7664     8.1064    -0.2504 H       
 299 H299         -40.6318     9.7943     1.3467 H       
 300 H300         -41.9376     8.6798     1.8170 H       
 301 H301         -39.4686     7.3500     2.1524 H       
 302 H302         -39.1033     8.3286     5.4860 H       
 303 H303         -41.3141    10.0650     3.4627 H       
 304 H304         -40.6737     9.9690     5.0130 H       
 305 H305         -44.2345     8.1046    -2.0998 H       
 306 H306         -44.5011     9.9758    -4.3259 H       
 307 H307         -45.5865     7.1272    -4.4537 H       
 308 H308         -46.0473     8.4350    -5.5698 H       
 309 H309         -43.6763     8.6904    -6.2494 H       
 310 H310         -43.2155     7.3826    -5.1333 H       
 311 H311         -44.6781     5.8098    -6.3725 H       
 312 H312         -45.1389     7.1175    -7.4886 H       
 313 H313         -42.3215     6.9217    -7.4620 H       
 314 H314         -44.3752     4.3038    -9.6815 H       
 315 H315         -41.2639     5.7646    -9.2545 H       
 316 H316         -42.1388     4.6677   -10.1786 H       
 317 H317         -47.1622    10.1455    -4.7163 H       
 318 H318         -48.6033     9.6316    -2.2290 H       
 319 H319         -48.0192    12.4579    -3.2189 H       
 320 H320         -49.2132    12.0542    -1.9619 H       
 321 H321         -46.2485    11.3464    -1.8257 H       
 322 H322         -47.8370    13.5431    -0.4228 H       
 323 H323         -46.1290    13.1432    -0.1210 H       
 324 H324         -46.6247    13.7942    -1.7017 H       
 325 H325         -47.7535     9.8245    -0.5738 H       
 326 H326         -46.7881    10.8250     0.5377 H       
 327 H327         -48.4961    11.2249     0.2359 H       
 328 H328         -50.9727    10.8652    -2.5846 H       
 329 H329         -51.6626    10.9735    -5.4200 H       
 330 H330         -52.7695     8.8272    -3.5553 H       
 331 H331         -53.4338     9.2104    -5.1616 H       
 332 H332         -50.5490     8.3668    -4.6368 H       
 333 H333         -52.9097     6.7929    -5.7624 H       
 334 H334         -51.2294     6.2142    -5.6625 H       
 335 H335         -52.1513     6.5320    -4.1733 H       
 336 H336         -50.8827     9.7894    -6.6402 H       
 337 H337         -50.4886     8.1165    -7.1030 H       
 338 H338         -52.1689     8.6952    -7.2029 H       
 339 H339         -54.3473    11.2086    -5.4266 H       
 340 H340         -55.2713    12.5353    -2.9948 H       
 341 H341         -55.7564    14.6724    -4.1550 H       
 342 H342         -54.0095    14.3311    -4.1488 H       
 343 H343         -54.9651    14.0541    -5.6247 H       
 344 H344         -58.5443    12.4866    -4.6483 H       
 345 H345          21.6398    -7.9846    -0.3941 H       
 346 H346          20.3598    -8.9934     0.3217 H       
 347 H347          20.5470    -8.9153    -1.4466 H       
 348 H348          19.7295    -6.5955     0.3608 H       
 349 H349          19.9167    -6.5175    -1.4076 H       
 350 H350          18.1521    -8.2396    -1.6703 H       
 351 H351          17.9649    -8.3176     0.0980 H       
 352 H352          17.3346    -5.9197     0.1371 H       
 353 H353          17.5218    -5.8417    -1.6313 H       
 354 H354          15.7572    -7.5638    -1.8941 H       
 355 H355          15.5700    -7.6418    -0.1257 H       
 356 H356          14.9397    -5.2440    -0.0866 H       
 357 H357          15.1269    -5.1659    -1.8550 H       
 358 H358          13.3622    -6.8881    -2.1178 H       
 359 H359          13.1750    -6.9661    -0.3494 H       
 360 H360          12.5447    -4.5682    -0.3103 H       
 361 H361          12.7319    -4.4902    -2.0787 H       
 362 H362          10.9673    -6.2123    -2.3415 H       
 363 H363          10.7801    -6.2903    -0.5731 H       
 364 H364          10.1498    -3.8924    -0.5340 H       
 365 H365          10.3370    -3.8144    -2.3024 H       
 366 H366           8.5724    -5.5365    -2.5652 H       
 367 H367           8.3852    -5.6146    -0.7968 H       
 368 H368           7.7549    -3.2167    -0.7578 H       
 369 H369           7.9421    -3.1387    -2.5261 H       
 370 H370           6.1774    -4.8608    -2.7889 H       
 371 H371           5.9902    -4.9388    -1.0205 H       
 372 H372           5.3599    -2.5409    -0.9815 H       
 373 H373           5.5471    -2.4629    -2.7498 H       
 374 H374           3.5953    -4.2630    -1.2443 H       
 375 H375           3.7825    -4.1850    -3.0126 H       
@<TRIPOS>BOND
   1    1    2 2
   2    1    4 1
   3    1   14 am
   4    3  156 am
   5    3    4 1
   6    3  173 1
   7    4    5 1
   8    4  174 1
   9    5    6 1
  10    5  175 1
  11    5  176 1
  12    6    7 ar
  13    6   11 ar
  14    7    8 ar
  15    7  177 1
  16    8    9 ar
  17    8  178 1
  18    9   10 ar
  19    9  179 1
  20   10   11 ar
  21   10  180 1
  22   11  181 1
  23   12   13 2
  24   12   15 1
  25   12   25 am
  26   14   15 1
  27   14  182 1
  28   15   16 1
  29   15  183 1
  30   16   17 1
  31   16  184 1
  32   16  185 1
  33   17   18 1
  34   17  186 1
  35   17  187 1
  36   18   19 1
  37   18  188 1
  38   18  189 1
  39   19   20 1
  40   19  190 1
  41   20   21 2
  42   20   22 1
  43   21  191 1
  44   22  192 1
  45   22  193 1
  46   23   24 2
  47   23   26 1
  48   23   34 am
  49   25   26 1
  50   25  194 1
  51   26   27 1
  52   26  195 1
  53   27   28 1
  54   27  196 1
  55   27  197 1
  56   28   29 1
  57   28  198 1
  58   28  199 1
  59   29   30 1
  60   29  200 1
  61   29  201 1
  62   30   31 1
  63   30  202 1
  64   30  203 1
  65   31  204 1
  66   31  205 1
  67   32   33 2
  68   32   35 1
  69   32   43 am
  70   34   35 1
  71   34  206 1
  72   35   36 1
  73   35  207 1
  74   36   37 1
  75   36  208 1
  76   36  209 1
  77   37   38 1
  78   37  210 1
  79   37  211 1
  80   38   39 2
  81   38   40 1
  82   40  212 1
  83   41   42 2
  84   41   44 1
  85   41   54 am
  86   43   44 1
  87   43  213 1
  88   44   45 1
  89   44  214 1
  90   45   46 1
  91   45  215 1
  92   45  216 1
  93   46   47 1
  94   46  217 1
  95   46  218 1
  96   47   48 1
  97   47  219 1
  98   47  220 1
  99   48   49 1
 100   48  221 1
 101   49   50 2
 102   49   51 1
 103   50  222 1
 104   51  223 1
 105   51  224 1
 106   52   53 2
 107   52   55 1
 108   52   62 am
 109   54   55 1
 110   54  225 1
 111   55   56 1
 112   55  226 1
 113   56   57 1
 114   56   59 1
 115   56  227 1
 116   57   58 1
 117   57  228 1
 118   57  229 1
 119   58  230 1
 120   58  231 1
 121   58  232 1
 122   59  233 1
 123   59  234 1
 124   59  235 1
 125   60   61 2
 126   60   63 1
 127   60   71 am
 128   62   63 1
 129   62  236 1
 130   63   64 1
 131   63  237 1
 132   64   65 1
 133   64  238 1
 134   64  239 1
 135   65   66 1
 136   65  240 1
 137   65  241 1
 138   66   67 2
 139   66   68 1
 140   68  242 1
 141   69   70 2
 142   69   72 1
 143   69   75 am
 144   71   72 1
 145   71  243 1
 146   72  244 1
 147   72  245 1
 148   73   74 2
 149   73   76 1
 150   73   83 am
 151   75   76 1
 152   75  246 1
 153   76   77 1
 154   76  247 1
 155   77   78 1
 156   77  248 1
 157   77  249 1
 158   78   79 1
 159   78   80 1
 160   78  250 1
 161   79  251 1
 162   79  252 1
 163   79  253 1
 164   80  254 1
 165   80  255 1
 166   80  256 1
 167   81   82 2
 168   81   84 1
 169   81   94 am
 170   83   84 1
 171   83  257 1
 172   84   85 1
 173   84  258 1
 174   85   86 1
 175   85  259 1
 176   85  260 1
 177   86   87 1
 178   86  261 1
 179   86  262 1
 180   87   88 1
 181   87  263 1
 182   87  264 1
 183   88   89 1
 184   88  265 1
 185   89   90 2
 186   89   91 1
 187   90  266 1
 188   91  267 1
 189   91  268 1
 190   92   93 2
 191   92   95 1
 192   92  103 am
 193   94   95 1
 194   94  269 1
 195   95   96 1
 196   95  270 1
 197   96   97 1
 198   96  271 1
 199   96  272 1
 200   97   98 1
 201   97  273 1
 202   97  274 1
 203   98   99 1
 204   98  275 1
 205   98  276 1
 206   99  100 1
 207   99  277 1
 208   99  278 1
 209  100  279 1
 210  100  280 1
 211  101  102 2
 212  101  104 1
 213  101  114 am
 214  103  104 1
 215  103  281 1
 216  104  105 1
 217  104  282 1
 218  105  106 1
 219  105  283 1
 220  105  284 1
 221  106  107 1
 222  106  285 1
 223  106  286 1
 224  107  108 1
 225  107  287 1
 226  107  288 1
 227  108  109 1
 228  108  289 1
 229  109  110 2
 230  109  111 1
 231  110  290 1
 232  111  291 1
 233  111  292 1
 234  112  113 2
 235  112  115 1
 236  112  125 am
 237  114  115 1
 238  114  293 1
 239  115  116 1
 240  115  294 1
 241  116  117 1
 242  116  295 1
 243  116  296 1
 244  117  118 1
 245  117  297 1
 246  117  298 1
 247  118  119 1
 248  118  299 1
 249  118  300 1
 250  119  120 1
 251  119  301 1
 252  120  121 2
 253  120  122 1
 254  121  302 1
 255  122  303 1
 256  122  304 1
 257  123  124 2
 258  123  126 1
 259  123  136 am
 260  125  126 1
 261  125  305 1
 262  126  127 1
 263  126  306 1
 264  127  128 1
 265  127  307 1
 266  127  308 1
 267  128  129 1
 268  128  309 1
 269  128  310 1
 270  129  130 1
 271  129  311 1
 272  129  312 1
 273  130  131 1
 274  130  313 1
 275  131  132 2
 276  131  133 1
 277  132  314 1
 278  133  315 1
 279  133  316 1
 280  134  135 2
 281  134  137 1
 282  134  144 am
 283  136  137 1
 284  136  317 1
 285  137  138 1
 286  137  318 1
 287  138  139 1
 288  138  319 1
 289  138  320 1
 290  139  140 1
 291  139  141 1
 292  139  321 1
 293  140  322 1
 294  140  323 1
 295  140  324 1
 296  141  325 1
 297  141  326 1
 298  141  327 1
 299  142  143 2
 300  142  145 1
 301  142  152 am
 302  144  145 1
 303  144  328 1
 304  145  146 1
 305  145  329 1
 306  146  147 1
 307  146  330 1
 308  146  331 1
 309  147  148 1
 310  147  149 1
 311  147  332 1
 312  148  333 1
 313  148  334 1
 314  148  335 1
 315  149  336 1
 316  149  337 1
 317  149  338 1
 318  150  151 2
 319  150  153 1
 320  150  155 1
 321  152  153 1
 322  152  339 1
 323  153  154 1
 324  153  340 1
 325  154  341 1
 326  154  342 1
 327  154  343 1
 328  155  344 1
 329  156  157 2
 330  156  172 1
 331  158  159 1
 332  158  345 1
 333  158  346 1
 334  158  347 1
 335  159  160 1
 336  159  348 1
 337  159  349 1
 338  160  161 1
 339  160  350 1
 340  160  351 1
 341  161  162 1
 342  161  352 1
 343  161  353 1
 344  162  163 1
 345  162  354 1
 346  162  355 1
 347  163  164 1
 348  163  356 1
 349  163  357 1
 350  164  165 1
 351  164  358 1
 352  164  359 1
 353  165  166 1
 354  165  360 1
 355  165  361 1
 356  166  167 1
 357  166  362 1
 358  166  363 1
 359  167  168 1
 360  167  364 1
 361  167  365 1
 362  168  169 1
 363  168  366 1
 364  168  367 1
 365  169  170 1
 366  169  368 1
 367  169  369 1
 368  170  171 1
 369  170  370 1
 370  170  371 1
 371  171  172 1
 372  171  372 1
 373  171  373 1
 374  172  374 1
 375  172  375 1

#	End of record

