#	Name: ASD03240394
#	Creating user name:	WinNT
#	Creation time:	15. 06. 2019 20:34

#	Modifying user name:	WinNT
#	Modification time:	15. 06. 2019 20:34

#	Program:	/corina/corina34_cracker 3.40 0067  02.08.2006

@<TRIPOS>MOLECULE
ASD03240394
  46   48    0    0    0
SMALL
NO_CHARGES


@<TRIPOS>ATOM
   1 N1            -0.2296     1.8044     1.1521 N.ar    
   2 C2            -0.2430     0.4658     1.2355 C.ar    
   3 C3             0.9309    -0.2760     0.9573 C.ar    
   4 C4             2.1359     0.4506     0.5827 C.ar    
   5 C5             2.0667     1.8461     0.5181 C.ar    
   6 C6             0.8426     2.4852     0.8171 C.ar    
   7 C7            -1.4109    -0.2225     1.5977 C.ar    
   8 C8            -1.4000    -1.5832     1.6762 C.ar    
   9 C9            -0.2448    -2.3077     1.4020 C.ar    
  10 C10            0.9090    -1.6716     1.0473 C.ar    
  11 N11            3.4180     0.1098     0.2508 N.pl3   
  12 C12            4.0917     1.2650    -0.0035 C.2     
  13 N13            3.2959     2.2837     0.1542 N.2     
  14 C14            3.9652    -1.2474     0.1818 C.3     
  15 C15            4.4277    -1.6823     1.5738 C.3     
  16 C16            4.9647    -3.1135     1.5089 C.3     
  17 C17            5.5342    -0.7440     2.0598 C.3     
  18 N18            0.7709     3.8666     0.7540 N.pl3   
  19 O19            3.3247    -1.6280     2.4808 O.3     
  20 C20            5.5412     1.3520    -0.4065 C.3     
  21 N21            5.6507     1.2422    -1.8673 N.3     
  22 C22            7.0575     1.2270    -2.2900 C.3     
  23 C23            7.1308     1.1120    -3.8140 C.3     
  24 H24           -2.3164     0.3248     1.8142 H       
  25 H25           -2.3022    -2.1068     1.9559 H       
  26 H26           -0.2610    -3.3854     1.4714 H       
  27 H27            1.8007    -2.2430     0.8361 H       
  28 H28            3.1957    -1.9317    -0.1757 H       
  29 H29            4.8124    -1.2632    -0.5039 H       
  30 H30            5.8060    -3.1549     0.8171 H       
  31 H31            5.2942    -3.4233     2.5006 H       
  32 H32            4.1764    -3.7819     1.1627 H       
  33 H33            5.1609     0.2799     2.0768 H       
  34 H34            5.8424    -1.0351     3.0640 H       
  35 H35            6.3877    -0.8085     1.3849 H       
  36 H36            1.5546     4.3822     0.5072 H       
  37 H37           -0.0630     4.3188     0.9567 H       
  38 H38            3.5455    -1.8913     3.3847 H       
  39 H39            5.9517     2.3082    -0.0822 H       
  40 H40            6.0978     0.5401     0.0616 H       
  41 H41            5.1624     0.4269    -2.2062 H       
  42 H42            7.5426     2.1496    -1.9715 H       
  43 H43            7.5639     0.3749    -1.8366 H       
  44 H44            6.6457     0.1893    -4.1325 H       
  45 H45            6.6244     1.9641    -4.2674 H       
  46 H46            8.1746     1.1007    -4.1277 H       
@<TRIPOS>BOND
   1    1    2 ar
   2    1    6 ar
   3    2    3 ar
   4    2    7 ar
   5    3    4 ar
   6    3   10 ar
   7    4    5 ar
   8    4   11 1
   9    5    6 ar
  10    5   13 1
  11    6   18 1
  12    7    8 ar
  13    7   24 1
  14    8    9 ar
  15    8   25 1
  16    9   10 ar
  17    9   26 1
  18   10   27 1
  19   11   12 1
  20   11   14 1
  21   12   13 2
  22   12   20 1
  23   14   15 1
  24   14   28 1
  25   14   29 1
  26   15   16 1
  27   15   17 1
  28   15   19 1
  29   16   30 1
  30   16   31 1
  31   16   32 1
  32   17   33 1
  33   17   34 1
  34   17   35 1
  35   18   36 1
  36   18   37 1
  37   19   38 1
  38   20   21 1
  39   20   39 1
  40   20   40 1
  41   21   22 1
  42   21   41 1
  43   22   23 1
  44   22   42 1
  45   22   43 1
  46   23   44 1
  47   23   45 1
  48   23   46 1

#	End of record

