#	Name: ASD05313111
#	Creating user name:	WinNT
#	Creation time:	15. 06. 2019 20:58

#	Modifying user name:	WinNT
#	Modification time:	15. 06. 2019 20:58

#	Program:	/corina/corina34_cracker 3.40 0067  02.08.2006

@<TRIPOS>MOLECULE
ASD05313111
  37   40    0    0    0
SMALL
NO_CHARGES


@<TRIPOS>ATOM
   1 C1            -0.0020     1.5190     0.0007 C.2     
   2 C2             0.0031     0.0089    -0.0126 C.3     
   3 N3             1.1237     2.2754     0.0101 N.pl3   
   4 N4             1.3910    -0.4144    -0.2783 N.am    
   5 C5             2.4759     0.2855     0.4263 C.3     
   6 C6             2.4906     1.7572    -0.0042 C.3     
   7 N7            -0.6108     3.5468     0.0277 N.2     
   8 N8            -1.0211     2.3252     0.0110 N.2     
   9 C9             0.7066     3.5715     0.0300 C.2     
  10 C10            1.5665     4.7747     0.0533 C.ar    
  11 C11            0.9911     6.0470     0.0722 C.ar    
  12 N12            2.8911     4.6489     0.0618 N.ar    
  13 N13            1.7633     7.1168     0.0933 N.ar    
  14 C14            3.0791     6.9851     0.0966 C.ar    
  15 C15            3.6541     5.7258     0.0830 C.ar    
  16 C16            1.6574    -1.4143    -1.1419 C.2     
  17 O17            2.8086    -1.6779    -1.4302 O.2     
  18 C18            0.5505    -2.1900    -1.7379 C.ar    
  19 C19            0.6499    -2.6581    -3.0501 C.ar    
  20 C20           -0.3866    -3.3818    -3.6015 C.ar    
  21 C21           -1.5266    -3.6442    -2.8548 C.ar    
  22 C22           -1.6295    -3.1816    -1.5524 C.ar    
  23 C23           -0.5963    -2.4625    -0.9896 C.ar    
  24 F24           -2.5398    -4.3528    -3.3994 F       
  25 Cl25          -0.2654    -3.9648    -5.2322 Cl      
  26 H26           -0.3235    -0.3728     0.9547 H       
  27 H27           -0.6550    -0.3584    -0.8001 H       
  28 H28            2.3114     0.2226     1.5020 H       
  29 H29            3.4306    -0.1767     0.1756 H       
  30 H30            2.9002     1.8379    -1.0110 H       
  31 H31            3.1056     2.3329     0.6874 H       
  32 H32           -0.0834     6.1552     0.0692 H       
  33 H33            3.7076     7.8633     0.1136 H       
  34 H34            4.7293     5.6242     0.0902 H       
  35 H35            1.5366    -2.4536    -3.6318 H       
  36 H36           -2.5189    -3.3883    -0.9757 H       
  37 H37           -0.6761    -2.1065     0.0269 H       
@<TRIPOS>BOND
   1    1    2 1
   2    1    3 1
   3    1    8 2
   4    2    4 1
   5    2   26 1
   6    2   27 1
   7    3    6 1
   8    3    9 1
   9    4    5 1
  10    4   16 am
  11    5    6 1
  12    5   28 1
  13    5   29 1
  14    6   30 1
  15    6   31 1
  16    7    8 1
  17    7    9 2
  18    9   10 1
  19   10   11 ar
  20   10   12 ar
  21   11   13 ar
  22   11   32 1
  23   12   15 ar
  24   13   14 ar
  25   14   15 ar
  26   14   33 1
  27   15   34 1
  28   16   17 2
  29   16   18 1
  30   18   19 ar
  31   18   23 ar
  32   19   20 ar
  33   19   35 1
  34   20   21 ar
  35   20   25 1
  36   21   22 ar
  37   21   24 1
  38   22   23 ar
  39   22   36 1
  40   23   37 1

#	End of record

