#	Name: ASD01912870
#	Creating user name:	WinNT
#	Creation time:	15. 06. 2019 20:00

#	Modifying user name:	WinNT
#	Modification time:	15. 06. 2019 20:00

#	Program:	/corina/corina34_cracker 3.40 0067  02.08.2006

@<TRIPOS>MOLECULE
ASD01912870
  46   49    0    0    0
SMALL
NO_CHARGES


@<TRIPOS>ATOM
   1 C1             0.5073     2.0382     0.1710 C.2     
   2 N2             0.3838     0.6727     0.1620 N.pl3   
   3 C3            -0.8846     0.1131     0.1966 C.2     
   4 C4            -1.9721     0.8721     0.2376 C.2     
   5 N5            -1.9017     2.2522     0.2483 N.am    
   6 C6            -0.6981     2.8671     0.2221 C.2     
   7 C7             1.8608     2.3165     0.1311 C.2     
   8 C8             2.4885     1.0723     0.0997 C.2     
   9 N9             1.5575     0.1481     0.1202 N.2     
  10 O10           -0.6187     4.0824     0.2311 O.2     
  11 C11           -3.0761     3.0132     0.2915 C.ar    
  12 C12            3.9752     0.8312     0.0502 C.3     
  13 O13            4.6610     2.0848     0.0400 O.3     
  14 C14            6.0166     2.0451    -0.0034 C.ar    
  15 N15            6.6367     0.8759    -0.0339 N.ar    
  16 C16            7.9538     0.7869    -0.0770 C.ar    
  17 C17            8.7395     1.9183    -0.0915 C.ar    
  18 C18            8.1274     3.1731    -0.0605 C.ar    
  19 C19            6.7370     3.2291    -0.0211 C.ar    
  20 C20           -3.9652     2.9809    -0.7750 C.ar    
  21 C21           -3.3565     3.7969     1.4032 C.ar    
  22 C22           -4.5157     4.5463     1.4439 C.ar    
  23 C23           -5.3984     4.5168     0.3771 C.ar    
  24 C24           -5.1233     3.7319    -0.7302 C.ar    
  25 F25           -6.5321     5.2503     0.4191 F       
  26 N26            8.8882     4.3385    -0.0734 N.pl3   
  27 C27           10.3488     4.2607     0.0088 C.3     
  28 C28            8.2284     5.6430    -0.1692 C.3     
  29 H29           -0.9893    -0.9618     0.1898 H       
  30 H30           -2.9417     0.3971     0.2628 H       
  31 H31            2.3308     3.2888     0.1250 H       
  32 H32            4.2796     0.2576     0.9257 H       
  33 H33            4.2231     0.2741    -0.8533 H       
  34 H34            8.4213    -0.1864    -0.1009 H       
  35 H35            9.8158     1.8359    -0.1261 H       
  36 H36            6.2274     4.1810     0.0033 H       
  37 H37           -3.7509     2.3692    -1.6389 H       
  38 H38           -2.6687     3.8200     2.2355 H       
  39 H39           -4.7343     5.1556     2.3084 H       
  40 H40           -5.8127     3.7105    -1.5612 H       
  41 H41           10.7662     4.1940    -0.9960 H       
  42 H42           10.7330     5.1529     0.5033 H       
  43 H43           10.6341     3.3773     0.5800 H       
  44 H44            7.1581     5.4989    -0.3165 H       
  45 H45            8.3964     6.2035     0.7505 H       
  46 H46            8.6399     6.1972    -1.0127 H       
@<TRIPOS>BOND
   1    1    2 1
   2    1    7 2
   3    1    6 1
   4    2    3 1
   5    2    9 1
   6    3    4 2
   7    3   29 1
   8    4    5 1
   9    4   30 1
  10    5    6 am
  11    5   11 1
  12    6   10 2
  13    7    8 1
  14    7   31 1
  15    8    9 2
  16    8   12 1
  17   11   20 ar
  18   11   21 ar
  19   12   13 1
  20   12   32 1
  21   12   33 1
  22   13   14 1
  23   14   15 ar
  24   14   19 ar
  25   15   16 ar
  26   16   17 ar
  27   16   34 1
  28   17   18 ar
  29   17   35 1
  30   18   19 ar
  31   18   26 1
  32   19   36 1
  33   20   24 ar
  34   20   37 1
  35   21   22 ar
  36   21   38 1
  37   22   23 ar
  38   22   39 1
  39   23   24 ar
  40   23   25 1
  41   24   40 1
  42   26   27 1
  43   26   28 1
  44   27   41 1
  45   27   42 1
  46   27   43 1
  47   28   44 1
  48   28   45 1
  49   28   46 1

#	End of record

