#	Name: ASD03430277
#	Creating user name:	WinNT
#	Creation time:	15. 06. 2019 20:40

#	Modifying user name:	WinNT
#	Modification time:	15. 06. 2019 20:40

#	Program:	/corina/corina34_cracker 3.40 0067  02.08.2006

@<TRIPOS>MOLECULE
ASD03430277
  62   67    0    0    0
SMALL
NO_CHARGES


@<TRIPOS>ATOM
   1 C1            -0.0166     1.3731     0.0096 C.ar    
   2 C2             0.0021    -0.0041     0.0020 C.ar    
   3 C3             1.2042    -0.6801    -0.0037 C.ar    
   4 C4             2.4064     0.0226     0.0069 C.ar    
   5 C5             2.3789     1.4121     0.0039 C.ar    
   6 C6             1.1699     2.0972     0.0022 C.ar    
   7 O7             3.4725    -0.8269     0.0325 O.3     
   8 C8             1.5601    -2.1417    -0.0330 C.3     
   9 C9             3.0504    -2.1336    -0.4017 C.3     
  10 C10            0.4369    -3.8650     1.0109 C.ar    
  11 C11            1.3140    -2.8180     1.2832 C.ar    
  12 C12            0.7430    -2.9080    -1.0329 C.2     
  13 N13            0.1236    -3.8915    -0.3499 N.am    
  14 O14            0.6571    -2.6857    -2.2222 O.2     
  15 C15            1.7632    -2.5964     2.5654 C.ar    
  16 C16            1.3449    -3.4168     3.5984 C.ar    
  17 C17            0.4739    -4.4591     3.3397 C.ar    
  18 C18            0.0205    -4.6852     2.0566 C.ar    
  19 C19           -0.7732    -4.8739    -0.9637 C.3     
  20 C20           -2.2076    -4.3423    -0.9361 C.3     
  21 C21           -3.1697    -5.2986    -1.6892 C.3     
  22 C22           -4.5289    -5.0258    -1.0111 C.3     
  23 N23           -4.2487    -4.4546     0.3143 N.am    
  24 C24           -2.7878    -4.3845     0.4996 C.3     
  25 C25           -5.1741    -4.0597     1.2110 C.2     
  26 O26           -4.8260    -3.5990     2.2810 O.2     
  27 N27           -6.4853    -4.1753     0.9216 N.am    
  28 C28           -7.4912    -3.7460     1.8964 C.3     
  29 C29           -7.7403    -2.2441     1.7442 C.3     
  30 C30           -8.7959    -4.5067     1.6516 C.3     
  31 C31           -1.1514     2.3780     0.0353 C.3     
  32 C32           -0.4169     3.6802     0.4334 C.3     
  33 O33            0.9269     3.4375    -0.0164 O.3     
  34 H34           -0.9264    -0.5557     0.0009 H       
  35 H35            3.3066     1.9651     0.0036 H       
  36 H36            3.1836    -2.2456    -1.4777 H       
  37 H37            3.5871    -2.9132     0.1390 H       
  38 H38            2.4432    -1.7815     2.7654 H       
  39 H39            1.6983    -3.2437     4.6042 H       
  40 H40            0.1473    -5.0993     4.1458 H       
  41 H41           -0.6595    -5.5014     1.8622 H       
  42 H42           -0.4699    -5.0476    -1.9962 H       
  43 H43           -0.7219    -5.8100    -0.4076 H       
  44 H44           -2.2565    -3.3345    -1.3485 H       
  45 H45           -3.2105    -5.0485    -2.7493 H       
  46 H46           -2.8699    -6.3370    -1.5481 H       
  47 H47           -5.1044    -4.3168    -1.6062 H       
  48 H48           -5.0832    -5.9582    -0.9033 H       
  49 H49           -2.4296    -5.2681     1.0277 H       
  50 H50           -2.5176    -3.4801     1.0447 H       
  51 H51           -6.7630    -4.5428     0.0680 H       
  52 H52           -7.1327    -3.9545     2.9043 H       
  53 H53           -8.0989    -2.0355     0.7363 H       
  54 H54           -8.4887    -1.9246     2.4695 H       
  55 H55           -6.8108    -1.7021     1.9186 H       
  56 H56           -8.6185    -5.5767     1.7599 H       
  57 H57           -9.5443    -4.1873     2.3768 H       
  58 H58           -9.1545    -4.2981     0.6436 H       
  59 H59           -1.6088     2.4743    -0.9494 H       
  60 H60           -1.8955     2.1061     0.7839 H       
  61 H61           -0.8473     4.5392    -0.0813 H       
  62 H62           -0.4426     3.8232     1.5137 H       
@<TRIPOS>BOND
   1    1    2 ar
   2    1    6 ar
   3    1   31 1
   4    2    3 ar
   5    2   34 1
   6    3    4 ar
   7    3    8 1
   8    4    5 ar
   9    4    7 1
  10    5    6 ar
  11    5   35 1
  12    6   33 1
  13    7    9 1
  14    8    9 1
  15    8   11 1
  16    8   12 1
  17    9   36 1
  18    9   37 1
  19   10   11 ar
  20   10   13 1
  21   10   18 ar
  22   11   15 ar
  23   12   13 am
  24   12   14 2
  25   13   19 1
  26   15   16 ar
  27   15   38 1
  28   16   17 ar
  29   16   39 1
  30   17   18 ar
  31   17   40 1
  32   18   41 1
  33   19   20 1
  34   19   42 1
  35   19   43 1
  36   20   21 1
  37   20   24 1
  38   20   44 1
  39   21   22 1
  40   21   45 1
  41   21   46 1
  42   22   23 1
  43   22   47 1
  44   22   48 1
  45   23   24 1
  46   23   25 am
  47   24   49 1
  48   24   50 1
  49   25   26 2
  50   25   27 am
  51   27   28 1
  52   27   51 1
  53   28   29 1
  54   28   30 1
  55   28   52 1
  56   29   53 1
  57   29   54 1
  58   29   55 1
  59   30   56 1
  60   30   57 1
  61   30   58 1
  62   31   32 1
  63   31   59 1
  64   31   60 1
  65   32   33 1
  66   32   61 1
  67   32   62 1

#	End of record

