#	Name: ASD01141068
#	Creating user name:	WinNT
#	Creation time:	15. 06. 2019 19:01

#	Modifying user name:	WinNT
#	Modification time:	15. 06. 2019 19:01

#	Program:	/corina/corina34_cracker 3.40 0067  02.08.2006

@<TRIPOS>MOLECULE
ASD01141068
  43   44    0    0    0
SMALL
NO_CHARGES


@<TRIPOS>ATOM
   1 C1            -0.1154     1.4845    -0.0586 C.2     
   2 C2             0.0563     0.0294     0.0062 C.2     
   3 C3             0.1496     2.2045    -1.3222 C.ar    
   4 O4            -0.4808     2.0986     0.9266 O.2     
   5 C5             1.3978    -0.5576    -0.1078 C.2     
   6 C6            -1.0442    -0.7893     0.1746 C.2     
   7 C7             0.5493     1.5007    -2.4601 C.ar    
   8 C8            -0.0042     3.5917    -1.3852 C.ar    
   9 O9             1.5404    -1.7647    -0.0519 O.2     
  10 N10            2.4708     0.2408    -0.2745 N.am    
  11 N11           -0.8768    -2.1169     0.3514 N.pl3   
  12 C12            0.7945     2.1782    -3.6358 C.ar    
  13 C13            0.2449     4.2573    -2.5698 C.ar    
  14 Cl14          -0.5075     4.4763     0.0211 Cl      
  15 C15           -1.9785    -2.9281     0.6388 C.ar    
  16 C16            0.6454     3.5534    -3.6906 C.ar    
  17 C17           -3.2468    -2.3700     0.7372 C.ar    
  18 C18           -1.8078    -4.2946     0.8210 C.ar    
  19 C19           -4.3333    -3.1738     1.0207 C.ar    
  20 C20           -2.8978    -5.0936     1.1044 C.ar    
  21 C21           -4.1595    -4.5341     1.2069 C.ar    
  22 Cl22          -5.5276    -5.5415     1.5638 Cl      
  23 H23            2.3667     1.2048    -0.2487 H       
  24 H24            0.0078    -2.5081     0.2790 H       
  25 C25            3.7943    -0.3474    -0.4946 C.3     
  26 C26            4.0158    -0.5584    -1.9937 C.3     
  27 C27            4.8685     0.5950     0.0520 C.3     
  28 H28           -2.0381    -0.3669     0.1648 H       
  29 H29            0.6665     0.4278    -2.4193 H       
  30 H30            1.1077     1.6350    -4.5151 H       
  31 H31            0.1262     5.3296    -2.6207 H       
  32 H32            0.8389     4.0785    -4.6143 H       
  33 H33           -3.3830    -1.3085     0.5923 H       
  34 H34           -0.8235    -4.7318     0.7407 H       
  35 H35           -5.3195    -2.7404     1.0976 H       
  36 H36           -2.7657    -6.1561     1.2461 H       
  37 H37            3.8560    -1.3062     0.0203 H       
  38 H38            3.2505    -1.2299    -2.3830 H       
  39 H39            3.9541     0.4003    -2.5086 H       
  40 H40            5.0005    -0.9961    -2.1574 H       
  41 H41            4.7646     0.6758     1.1340 H       
  42 H42            5.8554     0.2003    -0.1898 H       
  43 H43            4.7509     1.5804    -0.3989 H       
@<TRIPOS>BOND
   1    1    2 1
   2    1    3 1
   3    1    4 2
   4    2    5 1
   5    2    6 2
   6    3    7 ar
   7    3    8 ar
   8    5   10 am
   9    5    9 2
  10    6   11 1
  11    6   28 1
  12    7   12 ar
  13    7   29 1
  14    8   13 ar
  15    8   14 1
  16   10   23 1
  17   10   25 1
  18   11   24 1
  19   11   15 1
  20   12   16 ar
  21   12   30 1
  22   13   16 ar
  23   13   31 1
  24   15   18 ar
  25   15   17 ar
  26   16   32 1
  27   17   19 ar
  28   17   33 1
  29   18   20 ar
  30   18   34 1
  31   19   21 ar
  32   19   35 1
  33   20   21 ar
  34   20   36 1
  35   21   22 1
  36   25   26 1
  37   25   27 1
  38   25   37 1
  39   26   38 1
  40   26   39 1
  41   26   40 1
  42   27   41 1
  43   27   42 1
  44   27   43 1

#	End of record

