#	Name: ASD04930077
#	Creating user name:	WinNT
#	Creation time:	15. 06. 2019 20:56

#	Modifying user name:	WinNT
#	Modification time:	15. 06. 2019 20:56

#	Program:	/corina/corina34_cracker 3.40 0067  02.08.2006

@<TRIPOS>MOLECULE
ASD04930077
  61   63    0    0    0
SMALL
NO_CHARGES


@<TRIPOS>ATOM
   1 C1             0.0108     1.3343    -0.0305 C.ar    
   2 C2             0.0452    -0.0305    -0.0328 C.ar    
   3 C3             1.2601    -0.7049    -0.0224 C.ar    
   4 C4             2.4504    -0.0082    -0.0096 C.ar    
   5 C5             2.4395     1.3836    -0.0070 C.ar    
   6 C6             1.2072     2.0614    -0.0176 C.ar    
   7 C7             1.1890     3.5273    -0.0154 C.2     
   8 N8             3.6265     2.0871     0.0053 N.am    
   9 C9             3.6515     3.4307     0.0081 C.2     
  10 C10            2.4111     4.2045    -0.0028 C.2     
  11 O11            0.0221     4.2050    -0.0257 O.3     
  12 O12            4.7222     4.0117     0.0195 O.2     
  13 C13            2.4490     5.6720    -0.0005 C.2     
  14 O14            2.7228     6.2751    -1.0213 O.2     
  15 N15            2.1806     6.3513     1.1322 N.am    
  16 N16            2.3232     7.7446     1.1639 N.am    
  17 C17            2.0549     8.4239     2.2966 C.2     
  18 C18            2.2082     9.9227     2.3306 C.3     
  19 O19            1.6899     7.8290     3.2884 O.2     
  20 C20            1.8437    10.4411     3.7232 C.3     
  21 C21            1.9994    11.9628     3.7578 C.3     
  22 C22            1.6349    12.4813     5.1503 C.3     
  23 C23            1.7906    14.0029     5.1849 C.3     
  24 C24            1.4261    14.5214     6.5775 C.3     
  25 C25            1.5818    16.0430     6.6121 C.3     
  26 Cl26           1.2798    -2.4408    -0.0249 Cl      
  27 C27            4.8925     1.3501     0.0161 C.3     
  28 C28            5.3400     1.0996    -1.4010 C.ar    
  29 C29            4.9383    -0.0472    -2.0601 C.ar    
  30 C30            6.1475     2.0193    -2.0436 C.ar    
  31 C31            6.5581     1.7895    -3.3434 C.ar    
  32 C32            6.1614     0.6398    -4.0005 C.ar    
  33 C33            5.3488    -0.2769    -3.3600 C.ar    
  34 H34           -0.9370     1.8519    -0.0431 H       
  35 H35           -0.8785    -0.5900    -0.0424 H       
  36 H36            3.3894    -0.5418    -0.0012 H       
  37 H37            0.1231     5.1632     0.0566 H       
  38 H38            1.8888     5.8754     1.9255 H       
  39 H39            2.6151     8.2204     0.3706 H       
  40 H40            3.2408    10.1875     2.1031 H       
  41 H41            1.5463    10.3726     1.5907 H       
  42 H42            0.8111    10.1763     3.9507 H       
  43 H43            2.5057     9.9913     4.4631 H       
  44 H44            3.0320    12.2276     3.5303 H       
  45 H45            1.3375    12.4127     3.0178 H       
  46 H46            0.6023    12.2164     5.3778 H       
  47 H47            2.2968    12.0314     5.8903 H       
  48 H48            2.8232    14.2677     4.9574 H       
  49 H49            1.1287    14.4528     4.4450 H       
  50 H50            0.3935    14.2565     6.8050 H       
  51 H51            2.0880    14.0715     7.3174 H       
  52 H52            0.9199    16.4929     5.8721 H       
  53 H53            1.3221    16.4124     7.6042 H       
  54 H54            2.6144    16.3079     6.3846 H       
  55 H55            5.6494     1.9356     0.5380 H       
  56 H56            4.7539     0.3973     0.5271 H       
  57 H57            4.3041    -0.7638    -1.5595 H       
  58 H58            6.4574     2.9175    -1.5302 H       
  59 H59            7.1884     2.5084    -3.8457 H       
  60 H60            6.4819     0.4604    -5.0161 H       
  61 H61            5.0353    -1.1730    -3.8749 H       
@<TRIPOS>BOND
   1    1    2 ar
   2    1    6 ar
   3    1   34 1
   4    2    3 ar
   5    2   35 1
   6    3    4 ar
   7    3   26 1
   8    4    5 ar
   9    4   36 1
  10    5    6 ar
  11    5    8 1
  12    6    7 1
  13    7   10 2
  14    7   11 1
  15    8    9 am
  16    8   27 1
  17    9   10 1
  18    9   12 2
  19   10   13 1
  20   11   37 1
  21   13   14 2
  22   13   15 am
  23   15   16 1
  24   15   38 1
  25   16   17 am
  26   16   39 1
  27   17   18 1
  28   17   19 2
  29   18   20 1
  30   18   40 1
  31   18   41 1
  32   20   21 1
  33   20   42 1
  34   20   43 1
  35   21   22 1
  36   21   44 1
  37   21   45 1
  38   22   23 1
  39   22   46 1
  40   22   47 1
  41   23   24 1
  42   23   48 1
  43   23   49 1
  44   24   25 1
  45   24   50 1
  46   24   51 1
  47   25   52 1
  48   25   53 1
  49   25   54 1
  50   27   28 1
  51   27   55 1
  52   27   56 1
  53   28   30 ar
  54   28   29 ar
  55   29   33 ar
  56   29   57 1
  57   30   31 ar
  58   30   58 1
  59   31   32 ar
  60   31   59 1
  61   32   33 ar
  62   32   60 1
  63   33   61 1

#	End of record

