#	Name: ASD01420179
#	Creating user name:	WinNT
#	Creation time:	15. 06. 2019 19:20

#	Modifying user name:	WinNT
#	Modification time:	15. 06. 2019 19:20

#	Program:	/corina/corina34_cracker 3.40 0067  02.08.2006

@<TRIPOS>MOLECULE
ASD01420179
  63   66    0    0    0
SMALL
NO_CHARGES


@<TRIPOS>ATOM
   1 C1            -0.0144     1.2120     0.0087 C.2     
   2 O2             0.1180     0.0696     0.4042 O.2     
   3 C3             1.1533     2.1072    -0.0614 C.ar    
   4 C4             2.0776     2.1434     0.9939 C.ar    
   5 C5             3.1722     2.9870     0.9197 C.ar    
   6 C6             3.3533     3.7932    -0.1947 C.ar    
   7 C7             2.4376     3.7584    -1.2418 C.ar    
   8 C8             1.3483     2.9200    -1.1821 C.ar    
   9 C9             2.6427     4.6383    -2.4479 C.3     
  10 C10            2.7702     3.7670    -3.6991 C.3     
  11 C11            1.4464     5.5797    -2.6018 C.3     
  12 O12            4.4276     4.6195    -0.2636 O.3     
  13 O13            1.8986     1.3546     2.0830 O.3     
  14 C14           -1.5726     3.0270    -0.7649 C.3     
  15 N15           -1.2286     1.6572    -0.3707 N.am    
  16 C16           -2.4581     0.8644    -0.4689 C.3     
  17 C17           -3.5604     1.7830    -0.9323 C.ar    
  18 C18           -4.9001     1.5439    -1.1824 C.ar    
  19 C19           -5.7222     2.5762    -1.6072 C.ar    
  20 C20           -5.1984     3.8493    -1.7809 C.ar    
  21 C21           -3.8613     4.0834    -1.5302 C.ar    
  22 C22           -3.0413     3.0511    -1.1058 C.ar    
  23 O23           -7.0380     2.3417    -1.8534 O.3     
  24 C24           -7.8247     3.4526    -2.2883 C.3     
  25 C25           -9.2683     2.9983    -2.5131 C.3     
  26 N26           -9.8562     2.5833    -1.2324 N.3     
  27 C27          -11.2453     2.1397    -1.4100 C.3     
  28 C28          -11.6351     1.1648    -0.2851 C.3     
  29 C29          -12.8159     1.8110     0.4686 C.3     
  30 C30          -13.4433     2.7780    -0.5660 C.3     
  31 C31          -12.2028     3.3442    -1.3007 C.3     
  32 H32            3.8857     3.0181     1.7300 H       
  33 H33            0.6422     2.8927    -1.9989 H       
  34 H34            3.5524     5.2248    -2.3194 H       
  35 H35            3.6224     3.0963    -3.5895 H       
  36 H36            1.8605     3.1804    -3.8276 H       
  37 H37            2.9185     4.4034    -4.5715 H       
  38 H38            1.3556     6.2004    -1.7104 H       
  39 H39            1.5947     6.2161    -3.4742 H       
  40 H40            0.5367     4.9931    -2.7303 H       
  41 H41            5.2071     4.2180    -0.6713 H       
  42 H42            2.3144     0.4846     2.0111 H       
  43 H43           -1.3739     3.7100     0.0610 H       
  44 H44           -0.9863     3.3190    -1.6361 H       
  45 H45           -2.3214     0.0584    -1.1899 H       
  46 H46           -2.7090     0.4494     0.5073 H       
  47 H47           -5.3056     0.5522    -1.0469 H       
  48 H48           -5.8358     4.6558    -2.1120 H       
  49 H49           -3.4534     5.0743    -1.6653 H       
  50 H50           -7.8037     4.2327    -1.5273 H       
  51 H51           -7.4174     3.8434    -3.2207 H       
  52 H52           -9.8480     3.8224    -2.9289 H       
  53 H53           -9.2809     2.1584    -3.2078 H       
  54 H54           -9.2999     1.8639    -0.7954 H       
  55 H55          -11.3615     1.6562    -2.3799 H       
  56 H56          -11.9413     0.2085    -0.7092 H       
  57 H57          -10.7936     1.0209     0.3926 H       
  58 H58          -13.5384     1.0519     0.7683 H       
  59 H59          -12.4577     2.3624     1.3379 H       
  60 H60          -14.0888     2.2374    -1.2582 H       
  61 H61          -13.9932     3.5751    -0.0658 H       
  62 H62          -11.7456     4.1433    -0.7171 H       
  63 H63          -12.4779     3.7041    -2.2921 H       
@<TRIPOS>BOND
   1    1    2 2
   2    1    3 1
   3    1   15 am
   4    3    4 ar
   5    3    8 ar
   6    4    5 ar
   7    4   13 1
   8    5    6 ar
   9    5   32 1
  10    6    7 ar
  11    6   12 1
  12    7    8 ar
  13    7    9 1
  14    8   33 1
  15    9   10 1
  16    9   11 1
  17    9   34 1
  18   10   35 1
  19   10   36 1
  20   10   37 1
  21   11   38 1
  22   11   39 1
  23   11   40 1
  24   12   41 1
  25   13   42 1
  26   14   15 1
  27   14   22 1
  28   14   43 1
  29   14   44 1
  30   15   16 1
  31   16   17 1
  32   16   45 1
  33   16   46 1
  34   17   18 ar
  35   17   22 ar
  36   18   19 ar
  37   18   47 1
  38   19   20 ar
  39   19   23 1
  40   20   21 ar
  41   20   48 1
  42   21   22 ar
  43   21   49 1
  44   23   24 1
  45   24   25 1
  46   24   50 1
  47   24   51 1
  48   25   26 1
  49   25   52 1
  50   25   53 1
  51   26   27 1
  52   26   54 1
  53   27   28 1
  54   27   31 1
  55   27   55 1
  56   28   29 1
  57   28   56 1
  58   28   57 1
  59   29   30 1
  60   29   58 1
  61   29   59 1
  62   30   31 1
  63   30   60 1
  64   30   61 1
  65   31   62 1
  66   31   63 1

#	End of record

