#	Name: ASD00660023
#	Creating user name:	WinNT
#	Creation time:	15. 06. 2019 18:36

#	Modifying user name:	WinNT
#	Modification time:	15. 06. 2019 18:36

#	Program:	/corina/corina34_cracker 3.40 0067  02.08.2006

@<TRIPOS>MOLECULE
ASD00660023
  67   70    0    0    0
SMALL
NO_CHARGES


@<TRIPOS>ATOM
   1 C1            -6.9610    -2.5032     6.1890 C.ar    
   2 C2            -6.5671    -3.5812     5.4067 C.ar    
   3 C3            -6.3750    -3.4363     4.0516 C.ar    
   4 C4            -6.5785    -2.1900     3.4529 C.ar    
   5 C5            -6.9799    -1.0951     4.2523 C.ar    
   6 C6            -7.1732    -1.2659     5.6221 C.ar    
   7 N7            -6.3998    -2.0057     2.1237 N.2     
   8 C8            -6.5902    -0.8374     1.5621 C.2     
   9 N9            -6.9783     0.2717     2.2619 N.am    
  10 C10           -7.1863     0.2035     3.5972 C.2     
  11 C11           -7.1615     1.4878     1.5911 C.ar    
  12 O12           -7.5322     1.1826     4.2325 O.2     
  13 S13           -6.3338    -0.6882    -0.1748 S.3     
  14 C14           -5.6948    -2.3414    -0.5414 C.3     
  15 C15           -6.7900    -3.3580    -0.3460 C.2     
  16 N16           -6.4784    -4.6382    -0.0624 N.am    
  17 O17           -7.9518    -3.0241    -0.4438 O.2     
  18 C18           -7.5350    -5.6407     0.1308 C.3     
  19 C19           -7.3168    -6.3333     1.4797 C.3     
  20 C20           -5.8959    -6.8992     1.5341 C.3     
  21 C21           -4.8850    -5.7571     1.4085 C.3     
  22 C22           -5.0755    -5.0592     0.0532 C.3     
  23 C23           -5.6889    -7.6108     2.8463 C.2     
  24 N24           -4.5036    -8.1921     3.1180 N.am    
  25 O25           -6.5888    -7.6605     3.6578 O.2     
  26 C26           -5.2068    -2.3898    -1.9907 C.3     
  27 C27           -4.0036    -1.4590    -2.1550 C.3     
  28 C28           -3.5842    -1.4225    -3.6259 C.3     
  29 C29           -2.3811    -0.4918    -3.7902 C.3     
  30 C30           -6.0662     2.1758     1.0871 C.ar    
  31 C31           -6.2504     3.3758     0.4257 C.ar    
  32 C32           -7.5250     3.8904     0.2663 C.ar    
  33 C33           -8.6173     3.2065     0.7677 C.ar    
  34 C34           -8.4397     2.0046     1.4242 C.ar    
  35 Cl35          -4.8818     4.2377    -0.2048 Cl      
  36 C36           -7.1640    -2.6905     7.6705 C.3     
  37 H37           -6.4093    -4.5451     5.8675 H       
  38 H38           -6.0680    -4.2817     3.4537 H       
  39 H39           -7.4798    -0.4319     6.2361 H       
  40 H40           -4.8655    -2.5674     0.1289 H       
  41 H41           -8.5088    -5.1510     0.1247 H       
  42 H42           -7.4897    -6.3785    -0.6703 H       
  43 H43           -7.4521    -5.6116     2.2853 H       
  44 H44           -8.0361    -7.1445     1.5927 H       
  45 H45           -5.7534    -7.6023     0.7135 H       
  46 H46           -5.0432    -5.0409     2.2147 H       
  47 H47           -3.8734    -6.1582     1.4708 H       
  48 H48           -4.8284    -5.7511    -0.7520 H       
  49 H49           -4.4271    -4.1847    -0.0018 H       
  50 H50           -3.7839    -8.1523     2.4689 H       
  51 H51           -4.3704    -8.6501     3.9626 H       
  52 H52           -4.9144    -3.4094    -2.2418 H       
  53 H53           -6.0087    -2.0677    -2.6550 H       
  54 H54           -4.2741    -0.4546    -1.8292 H       
  55 H55           -3.1748    -1.8264    -1.5499 H       
  56 H56           -3.3138    -2.4269    -3.9517 H       
  57 H57           -4.4131    -1.0551    -4.2310 H       
  58 H58           -2.6515     0.5126    -3.4645 H       
  59 H59           -1.5522    -0.8591    -3.1851 H       
  60 H60           -2.0823    -0.4657    -4.8382 H       
  61 H61           -5.0714     1.7743     1.2118 H       
  62 H62           -7.6669     4.8281    -0.2504 H       
  63 H63           -9.6109     3.6107     0.6418 H       
  64 H64           -9.2935     1.4711     1.8152 H       
  65 H65           -6.2275    -2.4956     8.1930 H       
  66 H66           -7.9278    -1.9974     8.0230 H       
  67 H67           -7.4835    -3.7140     7.8669 H       
@<TRIPOS>BOND
   1    1    2 ar
   2    1   36 1
   3    1    6 ar
   4    2    3 ar
   5    2   37 1
   6    3    4 ar
   7    3   38 1
   8    4    5 ar
   9    4    7 1
  10    5    6 ar
  11    5   10 1
  12    6   39 1
  13    7    8 2
  14    8    9 1
  15    8   13 1
  16    9   10 am
  17    9   11 1
  18   10   12 2
  19   11   30 ar
  20   11   34 ar
  21   13   14 1
  22   14   15 1
  23   14   26 1
  24   14   40 1
  25   15   16 am
  26   15   17 2
  27   16   18 1
  28   16   22 1
  29   18   19 1
  30   18   41 1
  31   18   42 1
  32   19   20 1
  33   19   43 1
  34   19   44 1
  35   20   21 1
  36   20   23 1
  37   20   45 1
  38   21   22 1
  39   21   46 1
  40   21   47 1
  41   22   48 1
  42   22   49 1
  43   23   24 am
  44   23   25 2
  45   24   50 1
  46   24   51 1
  47   26   27 1
  48   26   52 1
  49   26   53 1
  50   27   28 1
  51   27   54 1
  52   27   55 1
  53   28   29 1
  54   28   56 1
  55   28   57 1
  56   29   58 1
  57   29   59 1
  58   29   60 1
  59   30   31 ar
  60   30   61 1
  61   31   32 ar
  62   31   35 1
  63   32   33 ar
  64   32   62 1
  65   33   34 ar
  66   33   63 1
  67   34   64 1
  68   36   65 1
  69   36   66 1
  70   36   67 1

#	End of record

