#	Name: ASD01811841
#	Creating user name:	WinNT
#	Creation time:	15. 06. 2019 19:27

#	Modifying user name:	WinNT
#	Modification time:	15. 06. 2019 19:27

#	Program:	/corina/corina34_cracker 3.40 0067  02.08.2006

@<TRIPOS>MOLECULE
ASD01811841
  60   64    0    0    0
SMALL
NO_CHARGES


@<TRIPOS>ATOM
   1 C1             0.3717     2.1430     0.1786 C.3     
   2 C2             0.2381     0.6643    -0.0713 C.2     
   3 C3             0.8867    -0.1981     0.7072 C.2     
   4 C4             1.7494     0.3458     1.7777 C.ar    
   5 C5             2.1235     1.6906     1.7176 C.ar    
   6 N6             1.7184     2.4768     0.6446 N.3     
   7 C7             1.8241     3.9056     0.9694 C.3     
   8 C8             2.1820    -0.4683     2.8294 C.ar    
   9 C9             2.9659     0.0432     3.8232 C.ar    
  10 C10            3.3380     1.3886     3.7966 C.ar    
  11 C11            2.9139     2.2269     2.7416 C.ar    
  12 C12            4.1744     1.9799     4.8511 C.2     
  13 N13            4.4789     3.2938     4.7429 N.am    
  14 C14            4.0211     4.0268     3.6932 C.2     
  15 N15            3.2837     3.5318     2.7464 N.2     
  16 O16            4.5774     1.3128     5.7864 O.2     
  17 C17            5.3094     3.9328     5.7668 C.3     
  18 C18            4.5262     5.0735     6.4198 C.3     
  19 C19            5.3935     5.7408     7.4891 C.3     
  20 C20            6.6624     6.2988     6.8415 C.3     
  21 C21            7.4456     5.1581     6.1884 C.3     
  22 C22            6.5783     4.4908     5.1191 C.3     
  23 O23            3.3411     4.5524     7.0248 O.3     
  24 C24            1.7796    -1.9202     2.8661 C.3     
  25 C25            0.4403    -2.0533     3.5440 C.ar    
  26 C26           -0.7247    -2.1089     2.7902 C.ar    
  27 C27           -1.9335    -2.2317     3.4512 C.ar    
  28 C28           -1.9412    -2.2950     4.8413 C.ar    
  29 N29           -0.8077    -2.2381     5.5249 N.ar    
  30 C30            0.3597    -2.1268     4.9204 C.ar    
  31 S31           -3.4719    -2.4514     5.6999 S.3     
  32 C32           -2.9615    -2.4906     7.4401 C.3     
  33 H33            0.1692     2.6822    -0.7468 H       
  34 H34           -0.3536     2.4453     0.9340 H       
  35 H35           -0.3820     0.3049    -0.8792 H       
  36 H36            0.7858    -1.2635     0.5617 H       
  37 H37            2.8747     4.1941     1.0016 H       
  38 H38            1.3098     4.4905     0.2069 H       
  39 H39            1.3661     4.0922     1.9408 H       
  40 H40            3.2979    -0.5929     4.6303 H       
  41 H41            4.2838     5.0733     3.6448 H       
  42 H42            5.5812     3.1982     6.5247 H       
  43 H43            4.2544     5.8082     5.6619 H       
  44 H44            4.8356     6.5535     7.9544 H       
  45 H45            5.6653     5.0062     8.2471 H       
  46 H46            6.3906     7.0334     6.0835 H       
  47 H47            7.2803     6.7742     7.6032 H       
  48 H48            8.3495     5.5556     5.7270 H       
  49 H49            7.7174     4.4235     6.9463 H       
  50 H50            7.1362     3.6781     4.6539 H       
  51 H51            6.3065     5.2254     4.3612 H       
  52 H52            2.7943     5.2214     7.4590 H       
  53 H53            1.7114    -2.3042     1.8483 H       
  54 H54            2.5255    -2.4900     3.4202 H       
  55 H55           -0.6878    -2.0571     1.7121 H       
  56 H56           -2.8587    -2.2775     2.8960 H       
  57 H57            1.2633    -2.0837     5.5102 H       
  58 H58           -3.8423    -2.5870     8.0750 H       
  59 H59           -2.2996    -3.3407     7.6056 H       
  60 H60           -2.4360    -1.5677     7.6855 H       
@<TRIPOS>BOND
   1    1    2 1
   2    1    6 1
   3    1   33 1
   4    1   34 1
   5    2    3 2
   6    2   35 1
   7    3    4 1
   8    3   36 1
   9    4    5 ar
  10    4    8 ar
  11    5    6 1
  12    5   11 ar
  13    6    7 1
  14    7   37 1
  15    7   38 1
  16    7   39 1
  17    8    9 ar
  18    8   24 1
  19    9   10 ar
  20    9   40 1
  21   10   11 ar
  22   10   12 1
  23   11   15 1
  24   12   13 am
  25   12   16 2
  26   13   14 1
  27   13   17 1
  28   14   15 2
  29   14   41 1
  30   17   18 1
  31   17   22 1
  32   17   42 1
  33   18   19 1
  34   18   23 1
  35   18   43 1
  36   19   20 1
  37   19   44 1
  38   19   45 1
  39   20   21 1
  40   20   46 1
  41   20   47 1
  42   21   22 1
  43   21   48 1
  44   21   49 1
  45   22   50 1
  46   22   51 1
  47   23   52 1
  48   24   25 1
  49   24   53 1
  50   24   54 1
  51   25   26 ar
  52   25   30 ar
  53   26   27 ar
  54   26   55 1
  55   27   28 ar
  56   27   56 1
  57   28   29 ar
  58   28   31 1
  59   29   30 ar
  60   30   57 1
  61   31   32 1
  62   32   58 1
  63   32   59 1
  64   32   60 1

#	End of record

