#	Name: ASD01882256
#	Creating user name:	WinNT
#	Creation time:	15. 06. 2019 19:44

#	Modifying user name:	WinNT
#	Modification time:	15. 06. 2019 19:44

#	Program:	/corina/corina34_cracker 3.40 0067  02.08.2006

@<TRIPOS>MOLECULE
ASD01882256
  48   50    0    0    0
SMALL
NO_CHARGES


@<TRIPOS>ATOM
   1 C1            -0.0159     1.3220     0.0093 C.2     
   2 N2             0.0021    -0.0041     0.0020 N.2     
   3 C3             1.1523    -0.6857    -0.0126 C.2     
   4 C4             2.3835     0.0173    -0.0206 C.2     
   5 C5             2.3523     1.3664    -0.0131 C.2     
   6 N6             1.1484     2.0132     0.0019 N.pl3   
   7 O7            -1.0993     2.1290     0.0184 O.3     
   8 C8             0.8540     3.4562     0.0125 C.3     
   9 C9            -0.6831     3.5211     0.0242 C.3     
  10 O10            1.1423    -1.9071    -0.0187 O.2     
  11 C11           -1.1944     4.2379    -1.2270 C.3     
  12 O12           -2.6209     4.3119    -1.1842 O.3     
  13 C13           -3.2031     4.9668    -2.3130 C.3     
  14 C14           -4.5924     4.3842    -2.5801 C.3     
  15 C15           -5.2157     5.0854    -3.7887 C.3     
  16 C16           -5.3373     6.5835    -3.5025 C.3     
  17 C17           -3.9479     7.1661    -3.2354 C.3     
  18 C18           -3.3246     6.4649    -2.0268 C.3     
  19 C19           -5.9606     7.2847    -4.7110 C.3     
  20 C20           -7.3499     6.7021    -4.9781 C.3     
  21 C21           -6.0821     8.7828    -4.4248 C.3     
  22 C22           -5.0731     7.0704    -5.9387 C.3     
  23 H23            3.3237    -0.5140    -0.0321 H       
  24 H24            3.2727     1.9314    -0.0185 H       
  25 H25            1.2651     3.9237     0.9072 H       
  26 H26            1.2480     3.9334    -0.8848 H       
  27 H27           -1.0396     4.0220     0.9243 H       
  28 H28           -0.7793     5.2451    -1.2639 H       
  29 H29           -0.8857     3.6850    -2.1142 H       
  30 H30           -2.5708     4.8141    -3.1877 H       
  31 H31           -4.5058     3.3170    -2.7840 H       
  32 H32           -5.2247     4.5369    -1.7054 H       
  33 H33           -4.5834     4.9328    -4.6633 H       
  34 H34           -6.2055     4.6704    -3.9789 H       
  35 H35           -5.9695     6.7362    -2.6278 H       
  36 H36           -3.3157     7.0134    -4.1100 H       
  37 H37           -4.0345     8.2333    -3.0315 H       
  38 H38           -3.9569     6.6175    -1.1522 H       
  39 H39           -2.3348     6.8799    -1.8365 H       
  40 H40           -7.9822     6.8548    -4.1035 H       
  41 H41           -7.7940     7.2017    -5.8391 H       
  42 H42           -7.2633     5.6349    -5.1820 H       
  43 H43           -5.0924     9.1978    -4.2346 H       
  44 H44           -6.5262     9.2823    -5.2858 H       
  45 H45           -6.7144     8.9354    -3.5502 H       
  46 H46           -4.9865     6.0031    -6.1427 H       
  47 H47           -5.5172     7.5699    -6.7998 H       
  48 H48           -4.0833     7.4854    -5.7485 H       
@<TRIPOS>BOND
   1    1    2 2
   2    1    6 1
   3    1    7 1
   4    2    3 1
   5    3    4 1
   6    3   10 2
   7    4    5 2
   8    4   23 1
   9    5    6 1
  10    5   24 1
  11    6    8 1
  12    7    9 1
  13    8    9 1
  14    8   25 1
  15    8   26 1
  16    9   11 1
  17    9   27 1
  18   11   12 1
  19   11   28 1
  20   11   29 1
  21   12   13 1
  22   13   14 1
  23   13   18 1
  24   13   30 1
  25   14   15 1
  26   14   31 1
  27   14   32 1
  28   15   16 1
  29   15   33 1
  30   15   34 1
  31   16   17 1
  32   16   19 1
  33   16   35 1
  34   17   18 1
  35   17   36 1
  36   17   37 1
  37   18   38 1
  38   18   39 1
  39   19   20 1
  40   19   22 1
  41   19   21 1
  42   20   40 1
  43   20   41 1
  44   20   42 1
  45   21   43 1
  46   21   44 1
  47   21   45 1
  48   22   46 1
  49   22   47 1
  50   22   48 1

#	End of record

