#	Name: ASD03540032
#	Creating user name:	WinNT
#	Creation time:	15. 06. 2019 20:42

#	Modifying user name:	WinNT
#	Modification time:	15. 06. 2019 20:42

#	Program:	/corina/corina34_cracker 3.40 0067  02.08.2006

@<TRIPOS>MOLECULE
ASD03540032
  52   55    0    0    0
SMALL
NO_CHARGES


@<TRIPOS>ATOM
   1 C1            -0.0164     1.3579     0.0095 C.2     
   2 N2             0.0021    -0.0041     0.0020 N.am    
   3 C3             1.2284    -0.6238    -0.0131 C.2     
   4 C4             2.3974     0.1025    -0.0208 C.2     
   5 C5             2.3228     1.5016    -0.0130 C.2     
   6 N6             1.1082     2.0844     0.0027 N.am    
   7 S7             0.9036    -2.3626    -0.0187 S.3     
   8 C8            -1.0724    -0.8452     0.0083 C.2     
   9 C9            -0.8584    -2.1683    -0.0005 C.2     
  10 C10           -1.8701    -3.2326     0.0040 C.2     
  11 O11           -3.0529    -2.9475     0.0165 O.2     
  12 N12           -1.4886    -4.5252    -0.0058 N.am    
  13 C13           -2.4979    -5.5869    -0.0013 C.3     
  14 C14           -1.8144    -6.9299    -0.0142 C.ar    
  15 C15           -1.4900    -7.5507     1.1783 C.ar    
  16 C16           -0.8627    -8.7831     1.1687 C.ar    
  17 C17           -0.5590    -9.3965    -0.0405 C.ar    
  18 C18           -0.8859    -8.7707    -1.2334 C.ar    
  19 C19           -1.5179    -7.5415    -1.2178 C.ar    
  20 O20            0.0581   -10.6078    -0.0537 O.3     
  21 C21            0.3396   -11.1786    -1.3331 C.3     
  22 F22           -0.5453    -9.3897     2.3334 F       
  23 O23            3.3377     2.1787    -0.0193 O.2     
  24 O24           -1.0879     1.9319     0.0177 O.2     
  25 C25            3.7334    -0.5944    -0.0369 C.3     
  26 C26            1.0159     3.5465     0.0110 C.3     
  27 C27            0.9975     4.0406     1.4345 C.ar    
  28 C28            2.1839     4.3427     2.0767 C.ar    
  29 C29            2.1670     4.7959     3.3825 C.ar    
  30 C30            0.9639     4.9474     4.0461 C.ar    
  31 C31           -0.2225     4.6462     3.4036 C.ar    
  32 C32           -0.2059     4.1971     2.0964 C.ar    
  33 H33           -2.0780    -0.4515     0.0204 H       
  34 H34           -0.5456    -4.7524    -0.0158 H       
  35 H35           -3.1122    -5.5005     0.8949 H       
  36 H36           -3.1291    -5.4920    -0.8850 H       
  37 H37           -1.7264    -7.0726     2.1174 H       
  38 H38           -0.6509    -9.2454    -2.1746 H       
  39 H39           -1.7765    -7.0562    -2.1473 H       
  40 H40           -0.5919   -11.3185    -1.8815 H       
  41 H41            0.9940   -10.5105    -1.8930 H       
  42 H42            0.8315   -12.1423    -1.2007 H       
  43 H43            4.0458    -0.7575    -1.0683 H       
  44 H44            4.4721     0.0243     0.4729 H       
  45 H45            3.6489    -1.5539     0.4733 H       
  46 H46            1.8764     3.9678    -0.5088 H       
  47 H47            0.1000     3.8556    -0.4928 H       
  48 H48            3.1239     4.2243     1.5582 H       
  49 H49            3.0939     5.0312     3.8844 H       
  50 H50            0.9508     5.3008     5.0665 H       
  51 H51           -1.1625     4.7642     3.9222 H       
  52 H52           -1.1330     3.9653     1.5932 H       
@<TRIPOS>BOND
   1    1    2 am
   2    1    6 am
   3    1   24 2
   4    2    3 1
   5    2    8 1
   6    3    4 2
   7    3    7 1
   8    4    5 1
   9    4   25 1
  10    5    6 am
  11    5   23 2
  12    6   26 1
  13    7    9 1
  14    8    9 2
  15    8   33 1
  16    9   10 1
  17   10   11 2
  18   10   12 am
  19   12   13 1
  20   12   34 1
  21   13   14 1
  22   13   35 1
  23   13   36 1
  24   14   15 ar
  25   14   19 ar
  26   15   16 ar
  27   15   37 1
  28   16   17 ar
  29   16   22 1
  30   17   18 ar
  31   17   20 1
  32   18   19 ar
  33   18   38 1
  34   19   39 1
  35   20   21 1
  36   21   40 1
  37   21   41 1
  38   21   42 1
  39   25   43 1
  40   25   44 1
  41   25   45 1
  42   26   27 1
  43   26   46 1
  44   26   47 1
  45   27   28 ar
  46   27   32 ar
  47   28   29 ar
  48   28   48 1
  49   29   30 ar
  50   29   49 1
  51   30   31 ar
  52   30   50 1
  53   31   32 ar
  54   31   51 1
  55   32   52 1

#	End of record

