#	Name: ASD00311150
#	Creating user name:	WinNT
#	Creation time:	15. 06. 2019 18:34

#	Modifying user name:	WinNT
#	Modification time:	15. 06. 2019 18:34

#	Program:	/corina/corina34_cracker 3.40 0067  02.08.2006

@<TRIPOS>MOLECULE
ASD00311150
  36   39    0    0    0
SMALL
NO_CHARGES


@<TRIPOS>ATOM
   1 C1            -0.0167     1.3776     0.0096 C.2     
   2 C2             0.0021    -0.0041     0.0020 C.2     
   3 C3             1.2586    -0.6766    -0.0136 C.2     
   4 C4             2.4315     0.0672    -0.0208 C.2     
   5 C5             2.3576     1.4750    -0.0126 C.2     
   6 N6             1.1650     2.0902     0.0022 N.am    
   7 C7            -1.3434    -0.5753     0.0123 C.2     
   8 C8            -2.3231     0.3266     0.0268 C.2     
   9 S9            -1.6791     1.9564     0.0358 S.3     
  10 O10            3.3825     2.1371    -0.0184 O.2     
  11 C11            3.7476    -0.6122    -0.0366 C.ar    
  12 C12            4.5933    -0.4749    -1.1371 C.ar    
  13 C13            5.8181    -1.1103    -1.1459 C.ar    
  14 C14            6.2077    -1.8824    -0.0660 C.ar    
  15 C15            5.3732    -2.0224     1.0285 C.ar    
  16 C16            4.1485    -1.3872     1.0515 C.ar    
  17 O17            1.3084    -2.0292    -0.0209 O.3     
  18 C18           -1.5961    -2.0356     0.0062 C.ar    
  19 C19           -2.2066    -2.6443     1.1023 C.ar    
  20 C20           -2.4398    -4.0058     1.0916 C.ar    
  21 C21           -2.0672    -4.7663    -0.0079 C.ar    
  22 C22           -1.4609    -4.1647    -1.0976 C.ar    
  23 C23           -1.2293    -2.8039    -1.0978 C.ar    
  24 F24           -2.2964    -6.0977    -0.0148 F       
  25 F25           -3.0307    -4.5977     2.1526 F       
  26 Cl26          -4.0152    -0.0612     0.0410 Cl      
  27 H27            1.1328     3.0597     0.0077 H       
  28 H28            4.2901     0.1273    -1.9808 H       
  29 H29            6.4737    -1.0051    -1.9976 H       
  30 H30            7.1672    -2.3781    -0.0777 H       
  31 H31            5.6829    -2.6264     1.8685 H       
  32 H32            3.4998    -1.4936     1.9084 H       
  33 H33            2.2056    -2.3897    -0.0315 H       
  34 H34           -2.4962    -2.0524     1.9580 H       
  35 H35           -1.1727    -4.7605    -1.9510 H       
  36 H36           -0.7603    -2.3356    -1.9505 H       
@<TRIPOS>BOND
   1    1    2 2
   2    1    6 1
   3    1    9 1
   4    2    3 1
   5    2    7 1
   6    3    4 2
   7    3   17 1
   8    4    5 1
   9    4   11 1
  10    5    6 am
  11    5   10 2
  12    6   27 1
  13    7    8 2
  14    7   18 1
  15    8    9 1
  16    8   26 1
  17   11   12 ar
  18   11   16 ar
  19   12   13 ar
  20   12   28 1
  21   13   14 ar
  22   13   29 1
  23   14   15 ar
  24   14   30 1
  25   15   16 ar
  26   15   31 1
  27   16   32 1
  28   17   33 1
  29   18   19 ar
  30   18   23 ar
  31   19   20 ar
  32   19   34 1
  33   20   21 ar
  34   20   25 1
  35   21   22 ar
  36   21   24 1
  37   22   23 ar
  38   22   35 1
  39   23   36 1

#	End of record

