#	Name: ASD01320030
#	Creating user name:	WinNT
#	Creation time:	15. 06. 2019 19:15

#	Modifying user name:	WinNT
#	Modification time:	15. 06. 2019 19:15

#	Program:	/corina/corina34_cracker 3.40 0067  02.08.2006

@<TRIPOS>MOLECULE
ASD01320030
  44   45    0    0    0
SMALL
NO_CHARGES


@<TRIPOS>ATOM
   1 C1            -0.4010     1.4278    -0.2860 C.2     
   2 C2             3.0971     1.9549     0.0913 C.2     
   3 C3             4.3493     1.1859     0.2174 C.ar    
   4 C4             5.5795     1.8468     0.2368 C.ar    
   5 C5             6.7468     1.1210     0.3554 C.ar    
   6 C6             6.7006    -0.2581     0.4549 C.ar    
   7 C7             5.4852    -0.9196     0.4363 C.ar    
   8 C8             4.3100    -0.2066     0.3236 C.ar    
   9 N9            -0.4505     0.0837    -0.2003 N.am    
  10 N10            0.7881     2.0616    -0.2576 N.am    
  11 N11            1.9643     1.3343    -0.0329 N.2     
  12 N12            5.6309     3.3223     0.1300 N.pl3   
  13 O13            6.7048     3.8888     0.0331 O.2     
  14 O14            4.5994     3.9698     0.1389 O.2     
  15 S15           -1.8482     2.3297    -0.4382 S.2     
  16 C16           -1.7449    -0.5986    -0.1282 C.3     
  17 C17           -1.7005    -1.8691    -0.9811 C.3     
  18 O18           -1.3635    -1.5290    -2.3275 O.3     
  19 C19           -0.6420    -2.8194    -0.4129 C.3     
  20 O20            0.6462    -2.2068    -0.4994 O.3     
  21 C21           -0.9714    -3.1148     1.0536 C.3     
  22 O22            0.0493    -3.9426     1.6149 O.3     
  23 C23           -1.0439    -1.7961     1.8279 C.3     
  24 O24           -2.0251    -0.9470     1.2290 O.3     
  25 C25           -1.4317    -2.0782     3.2808 C.3     
  26 O26           -1.3860    -0.8625     4.0306 O.3     
  27 H27            3.1230     3.0345     0.1024 H       
  28 H28            7.6988     1.6307     0.3703 H       
  29 H29            7.6176    -0.8212     0.5472 H       
  30 H30            5.4566    -1.9964     0.5141 H       
  31 H31            3.3619    -0.7237     0.3134 H       
  32 H32            0.3710    -0.4320    -0.1862 H       
  33 H33            0.8296     3.0212    -0.3927 H       
  34 H34           -2.5260     0.0633    -0.5024 H       
  35 H35           -2.6759    -2.3553    -0.9615 H       
  36 H36           -1.9897    -0.9247    -2.7490 H       
  37 H37           -0.6428    -3.7487    -0.9825 H       
  38 H38            0.9167    -1.9857    -1.4011 H       
  39 H39           -1.9312    -3.6277     1.1152 H       
  40 H40            0.1542    -4.7944     1.1693 H       
  41 H41           -0.0717    -1.3042     1.7999 H       
  42 H42           -2.4411    -2.4882     3.3144 H       
  43 H43           -0.7333    -2.7964     3.7103 H       
  44 H44           -1.6209    -0.9664     4.9628 H       
@<TRIPOS>BOND
   1    1    9 am
   2    1   10 am
   3    1   15 2
   4    2    3 1
   5    2   11 2
   6    2   27 1
   7    3    4 ar
   8    3    8 ar
   9    4    5 ar
  10    4   12 1
  11    5    6 ar
  12    5   28 1
  13    6    7 ar
  14    6   29 1
  15    7    8 ar
  16    7   30 1
  17    8   31 1
  18    9   16 1
  19    9   32 1
  20   10   11 1
  21   10   33 1
  22   12   13 2
  23   12   14 2
  24   16   17 1
  25   16   24 1
  26   16   34 1
  27   17   18 1
  28   17   19 1
  29   17   35 1
  30   18   36 1
  31   19   20 1
  32   19   21 1
  33   19   37 1
  34   20   38 1
  35   21   22 1
  36   21   23 1
  37   21   39 1
  38   22   40 1
  39   23   24 1
  40   23   25 1
  41   23   41 1
  42   25   26 1
  43   25   42 1
  44   25   43 1
  45   26   44 1

#	End of record

