#	Name: ASD01912349
#	Creating user name:	WinNT
#	Creation time:	15. 06. 2019 19:59

#	Modifying user name:	WinNT
#	Modification time:	15. 06. 2019 19:59

#	Program:	/corina/corina34_cracker 3.40 0067  02.08.2006

@<TRIPOS>MOLECULE
ASD01912349
  54   57    0    0    0
SMALL
NO_CHARGES


@<TRIPOS>ATOM
   1 C1            -0.1326     1.6314    -1.2244 C.ar    
   2 C2            -0.1145     0.2462    -1.4122 C.ar    
   3 C3             1.0967    -0.3865    -1.6237 C.ar    
   4 C4             2.2530     0.3823    -1.6413 C.ar    
   5 C5             2.1638     1.7489    -1.4485 C.ar    
   6 N6             0.9988     2.3300    -1.2488 N.ar    
   7 C7             3.4174     2.5851    -1.4672 C.3     
   8 C8            -1.3788     2.3035    -1.0102 C.1     
   9 C9            -2.4004     2.8546    -0.8345 C.1     
  10 C10           -3.6466     3.5268    -0.6203 C.2     
  11 N11           -3.6028     7.1938     0.9940 N.am    
  12 C12           -4.8459     6.4150     1.0644 C.3     
  13 C13           -4.9754     5.5754    -0.2129 C.3     
  14 C14           -3.6692     4.8467    -0.4407 C.2     
  15 C15           -2.3895     5.6535    -0.4603 C.3     
  16 C16           -2.3247     6.4910     0.8232 C.3     
  17 C17           -3.6352     8.5385     1.0796 C.2     
  18 O18           -4.7021     9.1201     1.1082 O.2     
  19 C19           -1.0337    11.1827     0.4424 C.ar    
  20 C20           -2.2243    10.4660     0.3807 C.ar    
  21 C21           -2.3729     9.3061     1.1389 C.ar    
  22 C22           -1.3265     8.8710     1.9551 C.ar    
  23 C23           -0.1482     9.5876     2.0109 C.ar    
  24 C24            0.0035    10.7380     1.2610 C.ar    
  25 C25           -0.8656    12.4154    -0.3667 C.ar    
  26 C26            0.3263    13.1344    -0.3060 C.ar    
  27 C27            0.4773    14.2802    -1.0605 C.ar    
  28 C28           -0.5520    14.7151    -1.8758 C.ar    
  29 C29           -1.7375    14.0054    -1.9395 C.ar    
  30 C30           -1.8970    12.8549    -1.1940 C.ar    
  31 H31           -1.0330    -0.3214    -1.3921 H       
  32 H32            1.1424    -1.4554    -1.7716 H       
  33 H33            3.2139    -0.0831    -1.8037 H       
  34 H34            3.6138     2.9227    -2.4848 H       
  35 H35            3.2872     3.4497    -0.8164 H       
  36 H36            4.2579     1.9877    -1.1140 H       
  37 H37           -4.5681     2.9637    -0.6042 H       
  38 H38           -4.8160     5.7569     1.9327 H       
  39 H39           -5.6968     7.0914     1.1449 H       
  40 H40           -5.7833     4.8529    -0.0968 H       
  41 H41           -5.1847     6.2274    -1.0610 H       
  42 H42           -1.5325     4.9812    -0.5034 H       
  43 H43           -2.3840     6.3119    -1.3289 H       
  44 H44           -1.5158     7.2175     0.7450 H       
  45 H45           -2.1501     5.8373     1.6778 H       
  46 H46           -3.0304    10.8072    -0.2519 H       
  47 H47           -1.4396     7.9726     2.5437 H       
  48 H48            0.6584     9.2478     2.6436 H       
  49 H49            0.9281    11.2941     1.3088 H       
  50 H50            1.1305    12.7960     0.3306 H       
  51 H51            1.4006    14.8385    -1.0139 H       
  52 H52           -0.4296    15.6122    -2.4645 H       
  53 H53           -2.5381    14.3496    -2.5775 H       
  54 H54           -2.8211    12.2987    -1.2484 H       
@<TRIPOS>BOND
   1    1    2 ar
   2    1    6 ar
   3    1    8 1
   4    2    3 ar
   5    2   31 1
   6    3    4 ar
   7    3   32 1
   8    4    5 ar
   9    4   33 1
  10    5    6 ar
  11    5    7 1
  12    7   34 1
  13    7   35 1
  14    7   36 1
  15    8    9 3
  16    9   10 1
  17   10   14 2
  18   10   37 1
  19   11   12 1
  20   11   16 1
  21   11   17 am
  22   12   13 1
  23   12   38 1
  24   12   39 1
  25   13   14 1
  26   13   40 1
  27   13   41 1
  28   14   15 1
  29   15   16 1
  30   15   42 1
  31   15   43 1
  32   16   44 1
  33   16   45 1
  34   17   18 2
  35   17   21 1
  36   19   20 ar
  37   19   24 ar
  38   19   25 1
  39   20   21 ar
  40   20   46 1
  41   21   22 ar
  42   22   23 ar
  43   22   47 1
  44   23   24 ar
  45   23   48 1
  46   24   49 1
  47   25   26 ar
  48   25   30 ar
  49   26   27 ar
  50   26   50 1
  51   27   28 ar
  52   27   51 1
  53   28   29 ar
  54   28   52 1
  55   29   30 ar
  56   29   53 1
  57   30   54 1

#	End of record

