#	Name: ASD04590064
#	Creating user name:	WinNT
#	Creation time:	15. 06. 2019 20:50

#	Modifying user name:	WinNT
#	Modification time:	15. 06. 2019 20:50

#	Program:	/corina/corina34_cracker 3.40 0067  02.08.2006

@<TRIPOS>MOLECULE
ASD04590064
  41   44    0    0    0
SMALL
NO_CHARGES


@<TRIPOS>ATOM
   1 N1             0.1105     1.1834     1.4627 N.pl3   
   2 C2             0.1071    -0.1464     1.2031 C.2     
   3 C3             1.3892    -0.5977     1.0908 C.2     
   4 C4             2.2634     0.5706     1.3024 C.ar    
   5 C5             3.6436     0.7570     1.3127 C.ar    
   6 C6             4.1604     2.0121     1.5480 C.ar    
   7 C7             3.3129     3.0871     1.7744 C.ar    
   8 C8             1.9458     2.9168     1.7674 C.ar    
   9 C9             1.4044     1.6573     1.5308 C.ar    
  10 C10            1.8152    -1.9761     0.8141 C.2     
  11 O11            3.0000    -2.2435     0.7399 O.2     
  12 N12            0.8937    -2.9446     0.6424 N.am    
  13 N13            2.4945    -6.0535     0.0071 N.pl3   
  14 N14            1.2653    -6.4230    -0.0424 N.2     
  15 C15            0.4697    -5.3929     0.1728 C.2     
  16 C16            1.3006    -4.2611     0.3781 C.2     
  17 C17            2.5744    -4.7226     0.2649 C.2     
  18 C18           -1.0047    -5.4138     0.1957 C.2     
  19 N19           -1.6657    -6.5690    -0.0167 N.am    
  20 O20           -1.6242    -4.3888     0.4062 O.2     
  21 C21           -3.0597    -6.6096     0.1012 C.ar    
  22 C22           -3.8229    -5.5185    -0.2932 C.ar    
  23 C23           -5.1984    -5.5608    -0.1764 C.ar    
  24 C24           -5.8166    -6.6899     0.3340 C.ar    
  25 C25           -5.0574    -7.7790     0.7278 C.ar    
  26 C26           -3.6820    -7.7431     0.6074 C.ar    
  27 F27           -7.1622    -6.7289     0.4482 F       
  28 H28           -0.6846     1.7264     1.5799 H       
  29 H29           -0.7777    -0.7572     1.1009 H       
  30 H30            4.3054    -0.0783     1.1375 H       
  31 H31            5.2302     2.1599     1.5567 H       
  32 H32            3.7289     4.0667     1.9581 H       
  33 H33            1.2951     3.7602     1.9454 H       
  34 H34           -0.0507    -2.7314     0.7015 H       
  35 H35            3.2560    -6.6412    -0.1176 H       
  36 H36            3.4790    -4.1407     0.3617 H       
  37 H37           -1.1752    -7.3724    -0.2514 H       
  38 H38           -3.3412    -4.6374    -0.6906 H       
  39 H39           -5.7923    -4.7125    -0.4830 H       
  40 H40           -5.5415    -8.6586     1.1259 H       
  41 H41           -3.0906    -8.5944     0.9106 H       
@<TRIPOS>BOND
   1    1    2 1
   2    1    9 1
   3    1   28 1
   4    2    3 2
   5    2   29 1
   6    3    4 1
   7    3   10 1
   8    4    5 ar
   9    4    9 ar
  10    5    6 ar
  11    5   30 1
  12    6    7 ar
  13    6   31 1
  14    7    8 ar
  15    7   32 1
  16    8    9 ar
  17    8   33 1
  18   10   11 2
  19   10   12 am
  20   12   16 1
  21   12   34 1
  22   13   14 1
  23   13   17 1
  24   13   35 1
  25   14   15 2
  26   15   16 1
  27   15   18 1
  28   16   17 2
  29   17   36 1
  30   18   19 am
  31   18   20 2
  32   19   21 1
  33   19   37 1
  34   21   22 ar
  35   21   26 ar
  36   22   23 ar
  37   22   38 1
  38   23   24 ar
  39   23   39 1
  40   24   25 ar
  41   24   27 1
  42   25   26 ar
  43   25   40 1
  44   26   41 1

#	End of record

