#	Name: ASD01150823
#	Creating user name:	WinNT
#	Creation time:	15. 06. 2019 19:05

#	Modifying user name:	WinNT
#	Modification time:	15. 06. 2019 19:05

#	Program:	/corina/corina34_cracker 3.40 0067  02.08.2006

@<TRIPOS>MOLECULE
ASD01150823
  52   54    0    0    0
SMALL
NO_CHARGES


@<TRIPOS>ATOM
   1 N1            -0.0179     1.4659     0.0101 N.3     
   2 C2             0.0021    -0.0041     0.0020 C.3     
   3 C3             0.7497    -0.4921    -1.2417 C.3     
   4 O4             2.0659     0.0673    -1.2506 O.3     
   5 C5             2.0838     1.4973    -1.2437 C.3     
   6 C6             1.3496     2.0055    -0.0001 C.3     
   7 C7             3.5320     1.9900    -1.2191 C.3     
   8 C8             4.8458    -0.0370    -4.0024 C.ar    
   9 N9             4.2422     0.3229    -2.8783 N.ar    
  10 C10            4.2208     1.5893    -2.4982 C.ar    
  11 C11            4.8393     2.5440    -3.2908 C.ar    
  12 C12            5.4611     2.1335    -4.4595 C.ar    
  13 N13            5.4461     0.8508    -4.7823 N.ar    
  14 S14            4.8564    -1.7366    -4.4671 S.3     
  15 C15            3.9344    -2.4471    -3.0811 C.3     
  16 C16            3.8130    -3.9604    -3.2716 C.3     
  17 C17            3.0336    -4.5610    -2.1000 C.3     
  18 C18            2.9122    -6.0742    -2.2906 C.3     
  19 C19            2.1328    -6.6749    -1.1190 C.3     
  20 C20            2.0114    -8.1881    -1.3095 C.3     
  21 C21            6.1455     3.1365    -5.3520 C.3     
  22 C22            5.2817     3.8773    -6.3747 C.3     
  23 C23            5.8093     4.6142    -5.1420 C.3     
  24 H24           -0.5539     1.8245    -0.7659 H       
  25 H25            0.5087    -0.3661     0.8967 H       
  26 H26           -1.0202    -0.3818    -0.0162 H       
  27 H27            0.8167    -1.5799    -1.2226 H       
  28 H28            0.2136    -0.1754    -2.1363 H       
  29 H29            1.5864     1.8718    -2.1384 H       
  30 H30            1.3110     3.0946    -0.0198 H       
  31 H31            1.8778     1.6756     0.8946 H       
  32 H32            3.5449     3.0758    -1.1243 H       
  33 H33            4.0528     1.5451    -0.3712 H       
  34 H34            4.8364     3.5852    -3.0038 H       
  35 H35            4.4611    -2.2393    -2.1497 H       
  36 H36            2.9389    -2.0048    -3.0421 H       
  37 H37            3.2863    -4.1682    -4.2030 H       
  38 H38            4.8085    -4.4027    -3.3107 H       
  39 H39            3.5603    -4.3532    -1.1686 H       
  40 H40            2.0381    -4.1187    -2.0610 H       
  41 H41            2.3855    -6.2821    -3.2220 H       
  42 H42            3.9077    -6.5165    -2.3296 H       
  43 H43            2.6595    -6.4671    -0.1876 H       
  44 H44            1.1374    -6.2326    -1.0799 H       
  45 H45            1.4847    -8.3960    -2.2409 H       
  46 H46            3.0069    -8.6304    -1.3485 H       
  47 H47            1.4562    -8.6160    -0.4748 H       
  48 H48            7.1668     2.8885    -5.6413 H       
  49 H49            5.7348     4.1171    -7.3366 H       
  50 H50            4.2184     3.6392    -6.4019 H       
  51 H51            5.0930     4.8610    -4.3583 H       
  52 H52            6.6094     5.3388    -5.2930 H       
@<TRIPOS>BOND
   1    1    2 1
   2    1    6 1
   3    1   24 1
   4    2    3 1
   5    2   25 1
   6    2   26 1
   7    3    4 1
   8    3   27 1
   9    3   28 1
  10    4    5 1
  11    5    6 1
  12    5    7 1
  13    5   29 1
  14    6   30 1
  15    6   31 1
  16    7   10 1
  17    7   32 1
  18    7   33 1
  19    8    9 ar
  20    8   13 ar
  21    8   14 1
  22    9   10 ar
  23   10   11 ar
  24   11   12 ar
  25   11   34 1
  26   12   13 ar
  27   12   21 1
  28   14   15 1
  29   15   16 1
  30   15   35 1
  31   15   36 1
  32   16   17 1
  33   16   37 1
  34   16   38 1
  35   17   18 1
  36   17   39 1
  37   17   40 1
  38   18   19 1
  39   18   41 1
  40   18   42 1
  41   19   20 1
  42   19   43 1
  43   19   44 1
  44   20   45 1
  45   20   46 1
  46   20   47 1
  47   21   22 1
  48   21   23 1
  49   21   48 1
  50   22   23 1
  51   22   49 1
  52   22   50 1
  53   23   51 1
  54   23   52 1

#	End of record

