#	Name: ASD00070110
#	Creating user name:	WinNT
#	Creation time:	15. 06. 2019 18:30

#	Modifying user name:	WinNT
#	Modification time:	15. 06. 2019 18:30

#	Program:	/corina/corina34_cracker 3.40 0067  02.08.2006

@<TRIPOS>MOLECULE
ASD00070110
  62   65    0    0    0
SMALL
NO_CHARGES


@<TRIPOS>ATOM
   1 C1            -0.0184     1.5028     0.0103 C.2     
   2 C2             0.0021    -0.0041     0.0020 C.3     
   3 C3             1.4513    -0.4944    -0.0145 C.3     
   4 O4             1.0236     2.1234     0.0037 O.2     
   5 N5            -1.1946     2.1607     0.0195 N.am    
   6 C6            -1.2145     3.6256     0.0275 C.3     
   7 C7            -2.5315     4.1210    -0.5732 C.3     
   8 C8            -2.5522     5.6509    -0.5648 C.3     
   9 C9            -2.4266     6.1547     0.8744 C.3     
  10 C10           -1.1096     5.6592     1.4751 C.3     
  11 C11           -1.0888     4.1294     1.4667 C.3     
  12 C12           -2.4474     7.6846     0.8828 C.3     
  13 C13           -2.4475     8.1867     2.3281 C.3     
  14 N14           -2.4674     9.6555     2.3362 N.3     
  15 C15           -2.7062    10.1711     3.6902 C.3     
  16 C16           -2.8652    11.6923     3.6376 C.3     
  17 C17           -1.5944    12.3135     3.0515 C.3     
  18 C18           -1.3419    11.7238     1.6611 C.3     
  19 C19           -1.2270    10.2018     1.7711 C.3     
  20 O20           -0.1096    16.6286     4.2738 O.3     
  21 C21            0.6621    15.6949     4.8571 C.2     
  22 C22            0.2442    14.4694     4.5127 C.2     
  23 C23           -0.9069    14.6646     3.6230 C.ar    
  24 C24           -1.0698    16.0564     3.5196 C.ar    
  25 C25           -1.7681    13.8064     2.9414 C.ar    
  26 C26           -2.7787    14.3311     2.1661 C.ar    
  27 C27           -2.9398    15.7051     2.0633 C.ar    
  28 C28           -2.0948    16.5647     2.7324 C.ar    
  29 H29           -0.4983    -0.3791     0.8948 H       
  30 H30           -0.5153    -0.3696    -0.8850 H       
  31 H31            1.9686    -0.1289     0.8726 H       
  32 H32            1.4661    -1.5843    -0.0204 H       
  33 H33            1.9516    -0.1193    -0.9073 H       
  34 H34           -2.0280     1.6644     0.0207 H       
  35 H35           -0.3805     4.0035    -0.5638 H       
  36 H36           -2.6210     3.7621    -1.5985 H       
  37 H37           -3.3655     3.7431     0.0182 H       
  38 H38           -1.7182     6.0288    -1.1561 H       
  39 H39           -3.4905     6.0039    -0.9927 H       
  40 H40           -3.2606     5.7768     1.4658 H       
  41 H41           -0.2756     6.0372     0.8838 H       
  42 H42           -1.0201     6.0182     2.5004 H       
  43 H43           -1.9228     3.7515     2.0581 H       
  44 H44           -0.1506     3.7764     1.8947 H       
  45 H45           -1.5649     8.0627     0.3669 H       
  46 H46           -3.3446     8.0386     0.3752 H       
  47 H47           -3.3300     7.8085     2.8441 H       
  48 H48           -1.5502     7.8327     2.8358 H       
  49 H49           -3.6149     9.7247     4.0939 H       
  50 H50           -1.8614     9.9163     4.3301 H       
  51 H51           -3.7183    11.9474     3.0089 H       
  52 H52           -3.0269    12.0764     4.6448 H       
  53 H53           -0.7475    12.0913     3.7007 H       
  54 H54           -2.1710    11.9795     1.0013 H       
  55 H55           -0.4152    12.1304     1.2562 H       
  56 H56           -0.3891     9.9467     2.4199 H       
  57 H57           -1.0614     9.7776     0.7807 H       
  58 H58            1.4979    15.9027     5.5088 H       
  59 H59            0.6690    13.5273     4.8263 H       
  60 H60           -3.4482    13.6700     1.6358 H       
  61 H61           -3.7353    16.1056     1.4524 H       
  62 H62           -2.2304    17.6325     2.6450 H       
@<TRIPOS>BOND
   1    1    2 1
   2    1    4 2
   3    1    5 am
   4    2    3 1
   5    2   29 1
   6    2   30 1
   7    3   31 1
   8    3   32 1
   9    3   33 1
  10    5    6 1
  11    5   34 1
  12    6    7 1
  13    6   11 1
  14    6   35 1
  15    7    8 1
  16    7   36 1
  17    7   37 1
  18    8    9 1
  19    8   38 1
  20    8   39 1
  21    9   10 1
  22    9   12 1
  23    9   40 1
  24   10   11 1
  25   10   41 1
  26   10   42 1
  27   11   43 1
  28   11   44 1
  29   12   13 1
  30   12   45 1
  31   12   46 1
  32   13   14 1
  33   13   47 1
  34   13   48 1
  35   14   15 1
  36   14   19 1
  37   15   16 1
  38   15   49 1
  39   15   50 1
  40   16   17 1
  41   16   51 1
  42   16   52 1
  43   17   18 1
  44   17   25 1
  45   17   53 1
  46   18   19 1
  47   18   54 1
  48   18   55 1
  49   19   56 1
  50   19   57 1
  51   20   21 1
  52   20   24 1
  53   21   22 2
  54   21   58 1
  55   22   23 1
  56   22   59 1
  57   23   24 ar
  58   23   25 ar
  59   24   28 ar
  60   25   26 ar
  61   26   27 ar
  62   26   60 1
  63   27   28 ar
  64   27   61 1
  65   28   62 1

#	End of record

