#	Name: ASD01814684
#	Creating user name:	WinNT
#	Creation time:	15. 06. 2019 19:32

#	Modifying user name:	WinNT
#	Modification time:	15. 06. 2019 19:32

#	Program:	/corina/corina34_cracker 3.40 0067  02.08.2006

@<TRIPOS>MOLECULE
ASD01814684
  58   62    0    0    0
SMALL
NO_CHARGES


@<TRIPOS>ATOM
   1 N1            -0.3138     1.5516     1.3167 N.2     
   2 C2            -0.3724     0.2959     1.6932 C.2     
   3 C3             0.7812    -0.3616     2.1445 C.2     
   4 C4             1.9572     0.3105     2.1888 C.2     
   5 N5             1.9914     1.6164     1.7915 N.pl3   
   6 C6             0.8430     2.2261     1.3561 C.2     
   7 N7             3.0237     2.5574     1.7211 N.2     
   8 C8             2.5355     3.6928     1.2642 C.2     
   9 C9             1.1809     3.5325     1.0243 C.2     
  10 C10            2.9256     5.1065     0.9091 C.3     
  11 N11            1.7214     5.7967     0.4366 N.am    
  12 C12            0.6203     4.8304     0.5023 C.3     
  13 C13            1.6412     7.0769     0.0228 C.2     
  14 C14            2.8168     7.9604     0.1273 C.ar    
  15 C15            3.1542     8.8156    -0.9336 C.ar    
  16 C16            3.5987     7.9560     1.2850 C.ar    
  17 C17            4.6962     8.7841     1.3764 C.ar    
  18 C18            5.0299     9.6230     0.3252 C.ar    
  19 C19            4.2644     9.6432    -0.8228 C.ar    
  20 O20            0.5992     7.5031    -0.4368 O.2     
  21 C21           -1.6850    -0.4427     1.6408 C.3     
  22 C22            0.7135    -1.8036     2.5773 C.3     
  23 C23            3.2103    -0.3742     2.6704 C.3     
  24 N24            2.3824     8.8338    -2.0881 N.3     
  25 N25            1.6469     9.7331    -4.6872 N.3     
  26 C26            0.8449    10.0998    -3.5117 C.3     
  27 C27            1.7469    10.1454    -2.2761 C.3     
  28 C28            3.1844     8.4670    -3.2636 C.3     
  29 C29            2.2824     8.4214    -4.4992 C.3     
  30 C30            0.8305     9.7523    -5.9083 C.3     
  31 H31            3.3200     5.6132     1.7899 H       
  32 H32            3.6781     5.0951     0.1206 H       
  33 H33            0.2041     4.6791    -0.4937 H       
  34 H34           -0.1546     5.1958     1.1761 H       
  35 H35            3.3430     7.3045     2.1075 H       
  36 H36            5.2993     8.7796     2.2723 H       
  37 H37            5.8921    10.2683     0.4066 H       
  38 H38            4.5286    10.3032    -1.6358 H       
  39 H39           -2.4624     0.2241     1.2677 H       
  40 H40           -1.5926    -1.3011     0.9755 H       
  41 H41           -1.9494    -0.7851     2.6413 H       
  42 H42           -0.3085    -2.1673     2.4710 H       
  43 H43            1.3787    -2.4015     1.9543 H       
  44 H44            1.0215    -1.8849     3.6197 H       
  45 H45            2.9803    -1.4048     2.9407 H       
  46 H46            3.9574    -0.3648     1.8768 H       
  47 H47            3.5996     0.1518     3.5421 H       
  48 H48            0.3949    11.0799    -3.6698 H       
  49 H49            0.0597     9.3588    -3.3616 H       
  50 H50            1.1487    10.3889    -1.3980 H       
  51 H51            2.5157    10.9055    -2.4149 H       
  52 H52            3.9696     9.2080    -3.4136 H       
  53 H53            3.6344     7.4869    -3.1054 H       
  54 H54            1.5136     7.6614    -4.3603 H       
  55 H55            2.8806     8.1780    -5.3773 H       
  56 H56            0.4264    10.7532    -6.0595 H       
  57 H57            1.4486     9.4772    -6.7630 H       
  58 H58            0.0109     9.0407    -5.8087 H       
@<TRIPOS>BOND
   1    1    2 2
   2    1    6 1
   3    2    3 1
   4    2   21 1
   5    3    4 2
   6    3   22 1
   7    4    5 1
   8    4   23 1
   9    5    7 1
  10    5    6 1
  11    6    9 2
  12    7    8 2
  13    8   10 1
  14    8    9 1
  15    9   12 1
  16   10   11 1
  17   10   31 1
  18   10   32 1
  19   11   12 1
  20   11   13 am
  21   12   33 1
  22   12   34 1
  23   13   14 1
  24   13   20 2
  25   14   16 ar
  26   14   15 ar
  27   15   19 ar
  28   15   24 1
  29   16   17 ar
  30   16   35 1
  31   17   18 ar
  32   17   36 1
  33   18   19 ar
  34   18   37 1
  35   19   38 1
  36   21   39 1
  37   21   40 1
  38   21   41 1
  39   22   42 1
  40   22   43 1
  41   22   44 1
  42   23   45 1
  43   23   46 1
  44   23   47 1
  45   24   28 1
  46   24   27 1
  47   25   26 1
  48   25   29 1
  49   25   30 1
  50   26   27 1
  51   26   48 1
  52   26   49 1
  53   27   50 1
  54   27   51 1
  55   28   29 1
  56   28   52 1
  57   28   53 1
  58   29   54 1
  59   29   55 1
  60   30   56 1
  61   30   57 1
  62   30   58 1

#	End of record

