#	Name: ASD02588070
#	Creating user name:	WinNT
#	Creation time:	15. 06. 2019 20:25

#	Modifying user name:	WinNT
#	Modification time:	15. 06. 2019 20:25

#	Program:	/corina/corina34_cracker 3.40 0067  02.08.2006

@<TRIPOS>MOLECULE
ASD02588070
  38   41    0    0    0
SMALL
NO_CHARGES


@<TRIPOS>ATOM
   1 C1            -0.0598     1.3774     0.2407 C.2     
   2 N2            -0.0447    -0.0025     0.2617 N.pl3   
   3 N3            -1.1977    -0.6857    -0.1515 N.2     
   4 C4            -2.2482    -0.0172    -0.5424 C.2     
   5 N5            -2.2747     1.3136    -0.5674 N.2     
   6 C6            -1.2308     2.0345    -0.1886 C.2     
   7 C7             1.1853     1.8172     0.6903 C.2     
   8 C8             1.9384     0.6621     0.9781 C.2     
   9 C9             1.1642    -0.4166     0.7076 C.2     
  10 N10           -1.2846     3.4140    -0.2242 N.pl3   
  11 C11            1.5840    -1.8540     0.8769 C.3     
  12 O12            0.7956    -2.7119     0.0235 O.3     
  13 C13            0.9091    -4.0309     0.6007 C.3     
  14 C14            0.8255    -3.8027     2.1262 C.3     
  15 C15            1.2797    -2.3376     2.3121 C.3     
  16 C16           -0.2449    -4.9189     0.1309 C.3     
  17 O17           -0.1250    -5.1524    -1.2738 O.3     
  18 F18            2.4315    -2.2782     3.1039 F       
  19 C19            1.6273     3.2187     0.8355 C.2     
  20 N20            0.9199     4.2472     1.3965 N.pl3   
  21 N21            1.7418     5.3809     1.3105 N.2     
  22 N22            2.8448     5.0394     0.7424 N.2     
  23 C23            2.8249     3.7431     0.4420 C.2     
  24 O24            1.7076    -4.6915     2.8145 O.3     
  25 *25            1.2682    -5.0498     4.1055 Du      
  26 H26           -3.1260    -0.5622    -0.8567 H       
  27 H27            2.9526     0.6401     1.3485 H       
  28 H28           -2.1310     3.8627    -0.3764 H       
  29 H29           -0.4759     3.9344    -0.0971 H       
  30 H30            2.6447    -1.9675     0.6533 H       
  31 H31            1.8665    -4.4798     0.3360 H       
  32 H32           -0.1986    -3.9324     2.4762 H       
  33 H33            0.4802    -1.7430     2.7540 H       
  34 H34           -0.2104    -5.8704     0.6616 H       
  35 H35           -1.1929    -4.4220     0.3370 H       
  36 H36           -0.8249    -5.7095    -1.6410 H       
  37 H37            0.0288     4.2015     1.7770 H       
  38 H38            3.6223     3.1972    -0.0401 H       
@<TRIPOS>BOND
   1    1    2 1
   2    1    7 2
   3    1    6 1
   4    2    3 1
   5    2    9 1
   6    3    4 2
   7    4    5 1
   8    4   26 1
   9    5    6 2
  10    6   10 1
  11    7    8 1
  12    7   19 1
  13    8    9 2
  14    8   27 1
  15    9   11 1
  16   10   28 1
  17   10   29 1
  18   11   12 1
  19   11   15 1
  20   11   30 1
  21   12   13 1
  22   13   14 1
  23   13   16 1
  24   13   31 1
  25   14   15 1
  26   14   24 1
  27   14   32 1
  28   15   18 1
  29   15   33 1
  30   16   17 1
  31   16   34 1
  32   16   35 1
  33   17   36 1
  34   19   20 1
  35   19   23 2
  36   20   21 1
  37   20   37 1
  38   21   22 2
  39   22   23 1
  40   23   38 1
  41   24   25 1

#	End of record

