#	Name: ASD00431144
#	Creating user name:	WinNT
#	Creation time:	15. 06. 2019 18:35

#	Modifying user name:	WinNT
#	Modification time:	15. 06. 2019 18:35

#	Program:	/corina/corina34_cracker 3.40 0067  02.08.2006

@<TRIPOS>MOLECULE
ASD00431144
  47   49    0    0    0
SMALL
NO_CHARGES


@<TRIPOS>ATOM
   1 N1             0.1501     1.7557    -0.6836 N.am    
   2 C2            -0.1016     0.4318    -0.6660 C.2     
   3 O3             0.7720    -0.3489    -0.3410 O.2     
   4 N4            -1.3218    -0.0267    -1.0085 N.am    
   5 C5             1.4765     2.2542    -0.3113 C.3     
   6 C6             2.3984     2.2113    -1.5316 C.3     
   7 O7             0.5773     4.6357    -0.3306 O.3     
   8 N8             0.6918     5.6778     0.2718 N.2     
   9 C9             1.5526     5.5682     1.2571 C.2     
  10 C10            2.0226     4.2231     1.2218 C.2     
  11 C11            1.3597     3.6739     0.1805 C.2     
  12 S12            3.1132     6.4503     3.5228 S.3     
  13 C13            2.8751     8.0845     3.9643 C.2     
  14 N14            2.0099     8.6428     3.1748 N.2     
  15 C15            1.4953     7.8939     2.2244 C.2     
  16 C16            1.9529     6.6244     2.2085 C.2     
  17 O17            3.4998     8.7073     4.9919 O.3     
  18 C18            3.1178     9.9765     5.2962 C.ar    
  19 C19            3.8393    10.7150     6.2248 C.ar    
  20 C20            3.4509    12.0048     6.5332 C.ar    
  21 C21            2.3406    12.5612     5.9150 C.ar    
  22 C22            1.6201    11.8230     4.9880 C.ar    
  23 C23            2.0113    10.5354     4.6750 C.ar    
  24 O24            1.9584    13.8303     6.2185 O.3     
  25 C25            2.6783    14.4932     7.2598 C.3     
  26 C26            2.5560    16.0077     7.0801 C.3     
  27 C27            2.0969    14.0921     8.6170 C.3     
  28 Cl28           5.2283    10.0180     6.9984 Cl      
  29 H29           -0.5457     2.3783    -0.9467 H       
  30 H30           -2.0188     0.5961    -1.2677 H       
  31 H31           -1.5030    -0.9796    -0.9958 H       
  32 H32            1.8909     1.6287     0.4793 H       
  33 H33            3.3853     2.5821    -1.2546 H       
  34 H34            2.4829     1.1844    -1.8873 H       
  35 H35            1.9840     2.8368    -2.3222 H       
  36 H36            2.7419     3.7523     1.8756 H       
  37 H37            0.7679     8.2633     1.5167 H       
  38 H38            4.0115    12.5794     7.2556 H       
  39 H39            0.7553    12.2563     4.5076 H       
  40 H40            1.4527     9.9627     3.9495 H       
  41 H41            3.7287    14.2057     7.2152 H       
  42 H42            1.5055    16.2952     7.1247 H       
  43 H43            3.1051    16.5133     7.8744 H       
  44 H44            2.9702    16.2935     6.1132 H       
  45 H45            2.6460    14.5977     9.4113 H       
  46 H46            1.0464    14.3796     8.6616 H       
  47 H47            2.1840    13.0131     8.7450 H       
@<TRIPOS>BOND
   1    1    2 am
   2    1    5 1
   3    1   29 1
   4    2    3 2
   5    2    4 am
   6    4   30 1
   7    4   31 1
   8    5    6 1
   9    5   11 1
  10    5   32 1
  11    6   33 1
  12    6   34 1
  13    6   35 1
  14    7    8 1
  15    7   11 1
  16    8    9 2
  17    9   10 1
  18    9   16 1
  19   10   11 2
  20   10   36 1
  21   12   13 1
  22   12   16 1
  23   13   14 2
  24   13   17 1
  25   14   15 1
  26   15   16 2
  27   15   37 1
  28   17   18 1
  29   18   19 ar
  30   18   23 ar
  31   19   20 ar
  32   19   28 1
  33   20   21 ar
  34   20   38 1
  35   21   22 ar
  36   21   24 1
  37   22   23 ar
  38   22   39 1
  39   23   40 1
  40   24   25 1
  41   25   26 1
  42   25   27 1
  43   25   41 1
  44   26   42 1
  45   26   43 1
  46   26   44 1
  47   27   45 1
  48   27   46 1
  49   27   47 1

#	End of record

