#	Name: ASD03240214
#	Creating user name:	WinNT
#	Creation time:	15. 06. 2019 20:34

#	Modifying user name:	WinNT
#	Modification time:	15. 06. 2019 20:34

#	Program:	/corina/corina34_cracker 3.40 0067  02.08.2006

@<TRIPOS>MOLECULE
ASD03240214
  69   74    0    0    0
SMALL
NO_CHARGES


@<TRIPOS>ATOM
   1 C1            -0.4781     1.7050     0.2992 C.ar    
   2 N2             1.8843     0.2857     0.1571 N.ar    
   3 O3             4.1366    -3.1489     1.1114 O.2     
   4 C4            -0.4857     0.3382     0.2214 C.ar    
   5 N5             1.1179     3.6685     0.3699 N.2     
   6 O6            11.1918     1.3781    -0.3044 O.2     
   7 C7             0.7244    -0.3561     0.1507 C.ar    
   8 N8             2.9810     2.5128     0.2562 N.pl3   
   9 C9             0.7577     2.3651     0.3052 C.ar    
  10 N10            9.2549     2.4520    -0.4686 N.am    
  11 C11            1.9408     1.6043     0.2313 C.ar    
  12 N12            3.0917    -4.6406    -0.1556 N.am    
  13 C13            2.4259     3.7649     0.3415 C.2     
  14 N14            3.5655     7.1397     1.3964 N.ar    
  15 C15            4.3481     2.2119     0.2040 C.ar    
  16 N16            1.8595     5.7863     2.2632 N.pl3   
  17 C17            4.8936     1.6504    -0.9428 C.ar    
  18 C18            6.2419     1.3548    -0.9912 C.ar    
  19 C19            7.0484     1.6176     0.1009 C.ar    
  20 C20            6.5081     2.1763     1.2446 C.ar    
  21 C21            5.1617     2.4798     1.2969 C.ar    
  22 C22            8.5192     1.2938     0.0448 C.3     
  23 C23           10.5943     2.3926    -0.6062 C.2     
  24 C24            0.7112    -1.8363     0.0665 C.ar    
  25 C25            1.9096    -2.5424    -0.0050 C.ar    
  26 C26            1.8902    -3.9268    -0.0830 C.ar    
  27 C27            0.6776    -4.6049    -0.0897 C.ar    
  28 C28           -0.5115    -3.9035    -0.0191 C.ar    
  29 C29           -0.5010    -2.5259     0.0646 C.ar    
  30 C30            4.1761    -4.2045     0.5154 C.2     
  31 C31            5.4379    -5.0286     0.5252 C.3     
  32 C32            3.1859     5.0293     0.3932 C.ar    
  33 C33            2.8816     6.0077     1.3544 C.ar    
  34 C34            4.5462     7.3909     0.5501 C.ar    
  35 C35            4.9038     6.4766    -0.4231 C.ar    
  36 C36            4.2213     5.2748    -0.5133 C.ar    
  37 C37           11.3367     3.5615    -1.1244 C.ar    
  38 C38           12.7237     3.5030    -1.2680 C.ar    
  39 C39           13.4118     4.5965    -1.7525 C.ar    
  40 C40           12.7308     5.7501    -2.0960 C.ar    
  41 C41           11.3535     5.8160    -1.9563 C.ar    
  42 C42           10.6527     4.7258    -1.4772 C.ar    
  43 F43           10.6946     6.9463    -2.2933 F       
  44 H44           -1.4024     2.2612     0.3503 H       
  45 H45           -1.4219    -0.2002     0.2151 H       
  46 H46            8.7780     3.2617    -0.7095 H       
  47 H47            3.1440    -5.4492    -0.6888 H       
  48 H48            1.5924     6.4909     2.8740 H       
  49 H49            1.4109     4.9266     2.2886 H       
  50 H50            4.2642     1.4446    -1.7960 H       
  51 H51            6.6667     0.9177    -1.8828 H       
  52 H52            7.1404     2.3797     2.0962 H       
  53 H53            4.7412     2.9209     2.1885 H       
  54 H54            8.6785     0.4407    -0.6146 H       
  55 H55            8.8762     1.0511     1.0457 H       
  56 H56            2.8511    -2.0133    -0.0001 H       
  57 H57            0.6639    -5.6831    -0.1505 H       
  58 H58           -1.4514    -4.4354    -0.0249 H       
  59 H59           -1.4319    -1.9815     0.1241 H       
  60 H60            6.2001    -4.5189     1.1145 H       
  61 H61            5.2311    -6.0044     0.9646 H       
  62 H62            5.7949    -5.1584    -0.4964 H       
  63 H63            5.0789     8.3278     0.6187 H       
  64 H64            5.7088     6.6979    -1.1082 H       
  65 H65            4.4824     4.5455    -1.2658 H       
  66 H66           13.2576     2.6033    -1.0001 H       
  67 H67           14.4852     4.5515    -1.8634 H       
  68 H68           13.2744     6.6031    -2.4744 H       
  69 H69            9.5790     4.7758    -1.3723 H       
@<TRIPOS>BOND
   1    1    4 ar
   2    1    9 ar
   3    1   44 1
   4    2    7 ar
   5    2   11 ar
   6    3   30 2
   7    4    7 ar
   8    4   45 1
   9    5    9 1
  10    5   13 2
  11    6   23 2
  12    7   24 1
  13    8   11 1
  14    8   13 1
  15    8   15 1
  16    9   11 ar
  17   10   22 1
  18   10   23 am
  19   10   46 1
  20   12   26 1
  21   12   30 am
  22   12   47 1
  23   13   32 1
  24   14   33 ar
  25   14   34 ar
  26   15   17 ar
  27   15   21 ar
  28   16   33 1
  29   16   48 1
  30   16   49 1
  31   17   18 ar
  32   17   50 1
  33   18   19 ar
  34   18   51 1
  35   19   20 ar
  36   19   22 1
  37   20   21 ar
  38   20   52 1
  39   21   53 1
  40   22   54 1
  41   22   55 1
  42   23   37 1
  43   24   25 ar
  44   24   29 ar
  45   25   26 ar
  46   25   56 1
  47   26   27 ar
  48   27   28 ar
  49   27   57 1
  50   28   29 ar
  51   28   58 1
  52   29   59 1
  53   30   31 1
  54   31   60 1
  55   31   61 1
  56   31   62 1
  57   32   33 ar
  58   32   36 ar
  59   34   35 ar
  60   34   63 1
  61   35   36 ar
  62   35   64 1
  63   36   65 1
  64   37   38 ar
  65   37   42 ar
  66   38   39 ar
  67   38   66 1
  68   39   40 ar
  69   39   67 1
  70   40   41 ar
  71   40   68 1
  72   41   42 ar
  73   41   43 1
  74   42   69 1

#	End of record

