#	Name: ASD01912797
#	Creating user name:	WinNT
#	Creation time:	15. 06. 2019 20:00

#	Modifying user name:	WinNT
#	Modification time:	15. 06. 2019 20:00

#	Program:	/corina/corina34_cracker 3.40 0067  02.08.2006

@<TRIPOS>MOLECULE
ASD01912797
  42   45    0    0    0
SMALL
NO_CHARGES


@<TRIPOS>ATOM
   1 C1            -0.0264     1.3420     0.2538 C.2     
   2 N2             0.0029    -0.0020    -0.0159 N.pl3   
   3 C3            -1.1912    -0.6642    -0.2586 C.2     
   4 C4            -2.3524    -0.0229    -0.2342 C.2     
   5 N5            -2.4358     1.3306     0.0320 N.am    
   6 C6            -1.3128     2.0397     0.2837 C.2     
   7 C7             1.2832     1.7374     0.4530 C.2     
   8 C8             2.0430     0.5806     0.2877 C.2     
   9 N9             1.2235    -0.4067     0.0131 N.2     
  10 O10           -1.3691     3.2331     0.5205 O.2     
  11 C11           -3.6833     1.9660     0.0465 C.ar    
  12 C12            3.5422     0.4812     0.4039 C.3     
  13 O13            4.0822     1.7674     0.7136 O.3     
  14 C14            5.4291     1.8526     0.8533 C.ar    
  15 C15            6.0133     3.0760     1.1544 C.ar    
  16 C16            7.3885     3.1494     1.2943 C.ar    
  17 C17            8.1336     1.9906     1.1272 C.ar    
  18 C18            7.4859     0.8081     0.8287 C.ar    
  19 N19            6.1727     0.7685     0.7068 N.ar    
  20 C20           -4.6043     1.6661     1.0414 C.ar    
  21 C21           -3.9983     2.9009    -0.9309 C.ar    
  22 C22           -5.2295     3.5284    -0.9172 C.ar    
  23 C23           -6.1508     3.2270     0.0696 C.ar    
  24 C24           -5.8378     2.2962     1.0531 C.ar    
  25 F25           -7.3536     3.8420     0.0805 F       
  26 O26           -6.7436     2.0004     2.0228 O.3     
  27 C27           -6.3544     1.0345     3.0013 C.3     
  28 H28           -1.1755    -1.7227    -0.4721 H       
  29 H29           -3.2599    -0.5752    -0.4287 H       
  30 H30            1.6408     2.7295     0.6861 H       
  31 H31            3.7994    -0.2214     1.1966 H       
  32 H32            3.9574     0.1308    -0.5411 H       
  33 H33            5.4029     3.9584     1.2773 H       
  34 H34            7.8706     4.0872     1.5278 H       
  35 H35            9.2085     2.0134     1.2292 H       
  36 H36            8.0610    -0.0965     0.6973 H       
  37 H37           -4.3595     0.9423     1.8046 H       
  38 H38           -3.2803     3.1380    -1.7021 H       
  39 H39           -5.4726     4.2554    -1.6779 H       
  40 H40           -7.1665     0.8919     3.7142 H       
  41 H41           -6.1326     0.0876     2.5090 H       
  42 H42           -5.4671     1.3872     3.5272 H       
@<TRIPOS>BOND
   1    1    2 1
   2    1    7 2
   3    1    6 1
   4    2    3 1
   5    2    9 1
   6    3    4 2
   7    3   28 1
   8    4    5 1
   9    4   29 1
  10    5    6 am
  11    5   11 1
  12    6   10 2
  13    7    8 1
  14    7   30 1
  15    8    9 2
  16    8   12 1
  17   11   21 ar
  18   11   20 ar
  19   12   13 1
  20   12   31 1
  21   12   32 1
  22   13   14 1
  23   14   15 ar
  24   14   19 ar
  25   15   16 ar
  26   15   33 1
  27   16   17 ar
  28   16   34 1
  29   17   18 ar
  30   17   35 1
  31   18   19 ar
  32   18   36 1
  33   20   24 ar
  34   20   37 1
  35   21   22 ar
  36   21   38 1
  37   22   23 ar
  38   22   39 1
  39   23   24 ar
  40   23   25 1
  41   24   26 1
  42   26   27 1
  43   27   40 1
  44   27   41 1
  45   27   42 1

#	End of record

