#	Name: ASD00844995
#	Creating user name:	WinNT
#	Creation time:	15. 06. 2019 18:51

#	Modifying user name:	WinNT
#	Modification time:	15. 06. 2019 18:51

#	Program:	/corina/corina34_cracker 3.40 0067  02.08.2006

@<TRIPOS>MOLECULE
ASD00844995
  96  101    0    0    0
SMALL
NO_CHARGES


@<TRIPOS>ATOM
   1 F1             5.6864    -2.0293    -2.1456 F       
   2 C2             0.6593     1.3200    -0.6318 C.ar    
   3 C3             0.9374    -0.0204    -0.8557 C.ar    
   4 C4             0.8458    -0.9293     0.1887 C.ar    
   5 C5             0.4782    -0.4976     1.4482 C.ar    
   6 C6             0.2010     0.8392     1.6686 C.ar    
   7 C7             0.2920     1.7468     0.6298 C.ar    
   8 C8             1.1468    -2.3863    -0.0510 C.3     
   9 C9             0.8545    -3.1997     1.1919 C.2     
  10 C10            0.3365    -2.9114    -1.2379 C.3     
  11 C11           -1.1268    -2.6320    -1.0101 C.2     
  12 N12           -2.0415    -3.0602    -1.9024 N.am    
  13 O13           -1.4812    -2.0217    -0.0238 O.2     
  14 C14           -3.4569    -2.6935    -1.7581 C.3     
  15 C15           -4.3018    -3.9713    -1.7772 C.3     
  16 C16           -3.9851    -4.7686    -3.0446 C.3     
  17 C17           -2.5073    -5.1665    -3.0430 C.3     
  18 C18           -1.6413    -3.8977    -3.0414 C.3     
  19 C19           -4.8522    -6.0285    -3.0842 C.3     
  20 C20           -6.3312    -5.6319    -3.0875 C.3     
  21 C21           -7.1922    -6.8930    -3.1886 C.3     
  22 N22           -6.8585    -7.6175    -4.4215 N.3     
  23 C23           -5.4551    -8.0498    -4.4200 C.3     
  24 C24           -4.5422    -6.8233    -4.3557 C.3     
  25 C25           -7.7609    -8.7592    -4.6218 C.3     
  26 O26           -0.2220    -3.3199     1.7375 O.2     
  27 N27            2.0117    -3.7639     1.5768 N.am    
  28 C28            2.6261    -2.5900    -0.2846 C.ar    
  29 C29            3.0709    -3.4262     0.7317 C.ar    
  30 C30            3.4945    -2.1222    -1.2452 C.ar    
  31 C31            4.8310    -2.4856    -1.2048 C.ar    
  32 C32            5.2871    -3.3198    -0.1953 C.ar    
  33 C33            4.4153    -3.7889     0.7684 C.ar    
  34 F34            6.5898    -3.6753    -0.1540 F       
  35 C35            1.8767    -6.3984     2.3612 C.ar    
  36 C36            0.6261    -6.7640     1.8840 C.ar    
  37 C37            2.8985    -7.3278     2.4078 C.ar    
  38 C38            2.6779    -8.6225     1.9792 C.ar    
  39 C39            1.4287    -8.9931     1.5011 C.ar    
  40 C40            0.4021    -8.0629     1.4538 C.ar    
  41 O41            1.2121   -10.2669     1.0802 O.3     
  42 O42           -0.3784    -5.8498     1.8389 O.3     
  43 C43            2.3151   -11.1722     1.1578 C.3     
  44 C44           -1.6394    -6.2959     1.3361 C.3     
  45 C45           -2.6376    -5.1366     1.3614 C.3     
  46 O46            1.2985    -0.4428    -2.0959 O.3     
  47 C47            1.2742     0.5278    -3.1444 C.3     
  48 C48            1.7894    -0.1060    -4.4381 C.3     
  49 F49            3.0667    -0.6344    -4.2221 F       
  50 F50            0.9219    -1.1299    -4.8334 F       
  51 S51            2.1643    -4.7461     2.9013 S.o2    
  52 O52            3.5290    -4.6835     3.2921 O.2     
  53 O53            1.0906    -4.4158     3.7716 O.2     
  54 H54            0.7342     2.0301    -1.4421 H       
  55 H55            0.4068    -1.2046     2.2614 H       
  56 H56           -0.0870     1.1747     2.6540 H       
  57 H57            0.0750     2.7903     0.8045 H       
  58 H58            0.6638    -2.4128    -2.1503 H       
  59 H59            0.4902    -3.9860    -1.3359 H       
  60 H60           -3.6047    -2.1719    -0.8125 H       
  61 H61           -3.7531    -2.0473    -2.5845 H       
  62 H62           -4.0685    -4.5748    -0.9000 H       
  63 H63           -5.3595    -3.7082    -1.7677 H       
  64 H64           -4.1952    -4.1557    -3.9211 H       
  65 H65           -2.2910    -5.7588    -2.1539 H       
  66 H66           -2.2879    -5.7542    -3.9344 H       
  67 H67           -1.7906    -3.3522    -3.9732 H       
  68 H68           -0.5912    -4.1721    -2.9405 H       
  69 H69           -4.6419    -6.6431    -2.2089 H       
  70 H70           -6.5681    -5.1025    -2.1646 H       
  71 H71           -6.5324    -4.9844    -3.9410 H       
  72 H72           -7.0007    -7.5335    -2.3278 H       
  73 H73           -8.2456    -6.6131    -3.2056 H       
  74 H74           -5.2717    -8.6850    -3.5534 H       
  75 H75           -5.2468    -8.6102    -5.3314 H       
  76 H76           -4.7153    -6.1946    -5.2291 H       
  77 H77           -3.5009    -7.1451    -4.3388 H       
  78 H78           -8.7883    -8.4022    -4.6935 H       
  79 H79           -7.4916    -9.2782    -5.5418 H       
  80 H80           -7.6724    -9.4446    -3.7789 H       
  81 H81            3.1343    -1.4731    -2.0296 H       
  82 H82            4.7770    -4.4380     1.5521 H       
  83 H83            3.8712    -7.0413     2.7794 H       
  84 H84            3.4782    -9.3467     2.0160 H       
  85 H85           -0.5708    -8.3495     1.0825 H       
  86 H86            2.0076   -12.1518     0.7918 H       
  87 H87            3.1364   -10.7975     0.5469 H       
  88 H88            2.6426   -11.2578     2.1939 H       
  89 H89           -1.5180    -6.6485     0.3118 H       
  90 H90           -2.0116    -7.1095     1.9587 H       
  91 H91           -2.7590    -4.7840     2.3856 H       
  92 H92           -2.2654    -4.3231     0.7388 H       
  93 H93           -3.5995    -5.4769     0.9779 H       
  94 H94            0.2523     0.8769    -3.2927 H       
  95 H95            1.9105     1.3706    -2.8742 H       
  96 H96            1.8372     0.6519    -5.2200 H       
@<TRIPOS>BOND
   1    1   31 1
   2    2    3 ar
   3    2    7 ar
   4    2   54 1
   5    3    4 ar
   6    3   46 1
   7    4    5 ar
   8    4    8 1
   9    5    6 ar
  10    5   55 1
  11    6    7 ar
  12    6   56 1
  13    7   57 1
  14    8    9 1
  15    8   10 1
  16    8   28 1
  17    9   26 2
  18    9   27 am
  19   10   11 1
  20   10   58 1
  21   10   59 1
  22   11   12 am
  23   11   13 2
  24   12   14 1
  25   12   18 1
  26   14   15 1
  27   14   60 1
  28   14   61 1
  29   15   16 1
  30   15   62 1
  31   15   63 1
  32   16   17 1
  33   16   19 1
  34   16   64 1
  35   17   18 1
  36   17   65 1
  37   17   66 1
  38   18   67 1
  39   18   68 1
  40   19   20 1
  41   19   24 1
  42   19   69 1
  43   20   21 1
  44   20   70 1
  45   20   71 1
  46   21   22 1
  47   21   72 1
  48   21   73 1
  49   22   23 1
  50   22   25 1
  51   23   24 1
  52   23   74 1
  53   23   75 1
  54   24   76 1
  55   24   77 1
  56   25   78 1
  57   25   79 1
  58   25   80 1
  59   27   51 am
  60   27   29 1
  61   28   29 ar
  62   28   30 ar
  63   29   33 ar
  64   30   31 ar
  65   30   81 1
  66   31   32 ar
  67   32   33 ar
  68   32   34 1
  69   33   82 1
  70   35   36 ar
  71   35   37 ar
  72   35   51 1
  73   36   42 1
  74   36   40 ar
  75   37   38 ar
  76   37   83 1
  77   38   39 ar
  78   38   84 1
  79   39   40 ar
  80   39   41 1
  81   40   85 1
  82   41   43 1
  83   42   44 1
  84   43   86 1
  85   43   87 1
  86   43   88 1
  87   44   45 1
  88   44   89 1
  89   44   90 1
  90   45   91 1
  91   45   92 1
  92   45   93 1
  93   46   47 1
  94   47   48 1
  95   47   94 1
  96   47   95 1
  97   48   49 1
  98   48   50 1
  99   48   96 1
 100   51   52 2
 101   51   53 2

#	End of record

