#	Name: ASD01948327
#	Creating user name:	WinNT
#	Creation time:	15. 06. 2019 20:14

#	Modifying user name:	WinNT
#	Modification time:	15. 06. 2019 20:14

#	Program:	/corina/corina34_cracker 3.40 0067  02.08.2006

@<TRIPOS>MOLECULE
ASD01948327
  59   61    0    0    0
SMALL
NO_CHARGES


@<TRIPOS>ATOM
   1 C1            -0.2493     1.4586    -0.0075 C.2     
   2 N2            -0.0271     0.1900    -0.4634 N.am    
   3 C3             1.2182    -0.2439    -0.7313 C.2     
   4 C4             2.1046     1.8924    -0.0844 C.2     
   5 C5             0.7810     2.3149     0.1871 C.2     
   6 C6             2.3158     4.2185    -1.6092 C.ar    
   7 C7             3.2505     3.9464    -0.6178 C.ar    
   8 N8             3.1733     2.7555     0.1095 N.pl3   
   9 C9             2.3950     5.3957    -2.3264 C.ar    
  10 C10            3.4040     6.3042    -2.0586 C.ar    
  11 C11            4.3361     6.0361    -1.0721 C.ar    
  12 C12            4.2621     4.8602    -0.3513 C.ar    
  13 N13            0.5379     3.6159     0.6556 N.am    
  14 S14           -1.0178     4.1547     0.8336 S.o2    
  15 C15           -1.6566     3.2311     2.2582 C.3     
  16 O16            1.3912    -1.3831    -1.1386 O.2     
  17 C17           -1.1075    -0.6687    -0.6536 C.2     
  18 Br18           3.5092     7.9150    -3.0435 Br      
  19 O19           -0.8772     5.5318     1.1545 O.2     
  20 O20           -1.6698     3.7436    -0.3602 O.2     
  21 C21            2.3159     0.6040    -0.5460 C.2     
  22 C22           -1.9619    -0.4468    -1.6340 C.2     
  23 F23            3.5671     0.1706    -0.8139 F       
  24 C24           -3.1507     3.3504     2.5651 C.3     
  25 C25           -2.5921     2.0540     1.9751 C.3     
  26 C26           -0.6995     3.1040     3.4451 C.3     
  27 C27            0.7233     2.8759     2.9308 C.3     
  28 O28           -0.7394     4.3041     4.2198 O.3     
  29 C29            1.6475     2.5628     4.1093 C.3     
  30 C30           -1.7319     0.6954    -2.5898 C.3     
  31 C31           -1.3003    -1.8512     0.2606 C.3     
  32 C32            5.2778     4.5689     0.7231 C.3     
  33 F33            6.1877     5.6284     0.8042 F       
  34 F34            4.6265     4.4184     1.9521 F       
  35 F35            5.9621     3.3894     0.4105 F       
  36 H36           -1.2590     1.7835     0.1956 H       
  37 H37            1.5308     3.5079    -1.8216 H       
  38 H38            3.8669     2.5324     0.7498 H       
  39 H39            1.6689     5.6076    -3.0973 H       
  40 H40            5.1226     6.7468    -0.8656 H       
  41 H41            1.2813     4.1991     0.8751 H       
  42 H42           -2.8263    -1.0836    -1.7515 H       
  43 H43           -3.4519     3.3379     3.6126 H       
  44 H44           -3.7499     3.9838     1.9110 H       
  45 H45           -2.8237     1.8345     0.9329 H       
  46 H46           -2.5257     1.1886     2.6345 H       
  47 H47           -1.0010     2.2604     4.0661 H       
  48 H48            0.7276     2.0384     2.2332 H       
  49 H49            1.0742     3.7740     2.4225 H       
  50 H50           -0.4825     5.0972     3.7299 H       
  51 H51            2.6611     2.4004     3.7429 H       
  52 H52            1.6432     3.4003     4.8069 H       
  53 H53            1.2966     1.6647     4.6176 H       
  54 H54           -0.7953     0.5383    -3.1248 H       
  55 H55           -2.5543     0.7432    -3.3035 H       
  56 H56           -1.6796     1.6306    -2.0325 H       
  57 H57           -1.8495    -1.5382     1.1486 H       
  58 H58           -1.8631    -2.6255    -0.2606 H       
  59 H59           -0.3275    -2.2451     0.5551 H       
@<TRIPOS>BOND
   1    1    2 1
   2    1    5 2
   3    1   36 1
   4    2    3 am
   5    2   17 1
   6    3   21 1
   7    3   16 2
   8    4    5 1
   9    4    8 1
  10    4   21 2
  11    5   13 1
  12    6    7 ar
  13    6    9 ar
  14    6   37 1
  15    7    8 1
  16    7   12 ar
  17    8   38 1
  18    9   10 ar
  19    9   39 1
  20   10   11 ar
  21   10   18 1
  22   11   12 ar
  23   11   40 1
  24   12   32 1
  25   13   14 am
  26   13   41 1
  27   14   15 1
  28   14   19 2
  29   14   20 2
  30   15   24 1
  31   15   26 1
  32   15   25 1
  33   17   22 2
  34   17   31 1
  35   21   23 1
  36   22   30 1
  37   22   42 1
  38   24   25 1
  39   24   43 1
  40   24   44 1
  41   25   45 1
  42   25   46 1
  43   26   27 1
  44   26   28 1
  45   26   47 1
  46   27   29 1
  47   27   48 1
  48   27   49 1
  49   28   50 1
  50   29   51 1
  51   29   52 1
  52   29   53 1
  53   30   54 1
  54   30   55 1
  55   30   56 1
  56   31   57 1
  57   31   58 1
  58   31   59 1
  59   32   33 1
  60   32   34 1
  61   32   35 1

#	End of record

