#	Name: ASD01948042
#	Creating user name:	WinNT
#	Creation time:	15. 06. 2019 20:13

#	Modifying user name:	WinNT
#	Modification time:	15. 06. 2019 20:13

#	Program:	/corina/corina34_cracker 3.40 0067  02.08.2006

@<TRIPOS>MOLECULE
ASD01948042
  49   52    0    0    0
SMALL
NO_CHARGES


@<TRIPOS>ATOM
   1 C1            -2.1992     2.4502    -3.4701 C.3     
   2 C2            -3.2193     2.3586    -4.6172 C.3     
   3 C3            -2.1995     1.4695    -5.3482 C.3     
   4 C4            -1.1109     2.1733    -4.5207 C.3     
   5 S5            -2.0881     4.1010    -2.7265 S.o2    
   6 O6            -1.4395     5.0040    -3.6115 O.2     
   7 O7            -3.3133     4.4470    -2.0952 O.2     
   8 N8            -1.0204     3.9190    -1.4738 N.am    
   9 C9             1.2300     3.1156    -1.8675 C.2     
  10 C10            0.3527     4.1711    -1.6752 C.2     
  11 C11            0.8300     5.4898    -1.6814 C.2     
  12 C12            2.1875     5.7150    -1.8818 C.2     
  13 C13            3.0345     4.6287    -2.0705 C.2     
  14 N14            2.5558     3.3668    -2.0611 N.am    
  15 N15            0.9475     1.7618    -1.8883 N.pl3   
  16 C16            2.1858     1.0125    -2.1237 C.3     
  17 C17            3.2728     2.0930    -2.2398 C.3     
  18 O18            4.2291     4.8191    -2.2472 O.2     
  19 C19            2.7338     7.1194    -1.8949 C.3     
  20 N20           -0.0394     6.5539    -1.4909 N.pl3   
  21 C21           -0.8585     6.5937    -0.3574 C.ar    
  22 C22           -1.8279     7.5838    -0.2321 C.ar    
  23 C23           -2.6355     7.6193     0.8893 C.ar    
  24 C24           -2.4800     6.6714     1.8853 C.ar    
  25 C25           -1.5171     5.6865     1.7626 C.ar    
  26 C26           -0.7099     5.6420     0.6420 C.ar    
  27 I27           -3.7055     6.7291     3.5835 I       
  28 F28           -1.9793     8.5094    -1.2045 F       
  29 O29           -2.3353     0.0786    -5.0502 O.3     
  30 H30           -2.3027     1.6573    -2.7293 H       
  31 H31           -4.1370     1.8373    -4.3448 H       
  32 H32           -3.4039     3.3109    -5.1144 H       
  33 H33           -2.1330     1.6698    -6.4175 H       
  34 H34           -0.7191     3.0750    -4.9916 H       
  35 H35           -0.3265     1.5024    -4.1705 H       
  36 H36           -1.3393     3.6391    -0.6015 H       
  37 H37            0.0687     1.3697    -1.7660 H       
  38 H38            2.3976     0.3532    -1.2819 H       
  39 H39            2.1140     0.4395    -3.0482 H       
  40 H40            3.7433     2.0568    -3.2224 H       
  41 H41            4.0189     1.9640    -1.4557 H       
  42 H42            3.1034     7.3747    -0.9017 H       
  43 H43            3.5501     7.1850    -2.6142 H       
  44 H44            1.9432     7.8142    -2.1781 H       
  45 H45           -0.0793     7.2704    -2.1436 H       
  46 H46           -3.3882     8.3875     0.9881 H       
  47 H47           -1.3983     4.9485     2.5422 H       
  48 H48            0.0387     4.8695     0.5455 H       
  49 H49           -1.6966    -0.4857    -5.5070 H       
@<TRIPOS>BOND
   1    1    2 1
   2    1    4 1
   3    1    5 1
   4    1   30 1
   5    2    3 1
   6    2   31 1
   7    2   32 1
   8    3    4 1
   9    3   29 1
  10    3   33 1
  11    4   34 1
  12    4   35 1
  13    5    6 2
  14    5    7 2
  15    5    8 am
  16    8   10 1
  17    8   36 1
  18    9   10 2
  19    9   14 1
  20    9   15 1
  21   10   11 1
  22   11   12 2
  23   11   20 1
  24   12   13 1
  25   12   19 1
  26   13   14 am
  27   13   18 2
  28   14   17 1
  29   15   16 1
  30   15   37 1
  31   16   17 1
  32   16   38 1
  33   16   39 1
  34   17   40 1
  35   17   41 1
  36   19   42 1
  37   19   43 1
  38   19   44 1
  39   20   21 1
  40   20   45 1
  41   21   22 ar
  42   21   26 ar
  43   22   23 ar
  44   22   28 1
  45   23   24 ar
  46   23   46 1
  47   24   25 ar
  48   24   27 1
  49   25   26 ar
  50   25   47 1
  51   26   48 1
  52   29   49 1

#	End of record

