#	Name: ASD04500003
#	Creating user name:	WinNT
#	Creation time:	15. 06. 2019 20:49

#	Modifying user name:	WinNT
#	Modification time:	15. 06. 2019 20:49

#	Program:	/corina/corina34_cracker 3.40 0067  02.08.2006

@<TRIPOS>MOLECULE
ASD04500003
  43   44    0    0    0
SMALL
NO_CHARGES


@<TRIPOS>ATOM
   1 C1            -0.0187     1.5258     0.0104 C.3     
   2 C2             0.0021    -0.0041     0.0020 C.3     
   3 C3             0.7421    -0.5109     1.2415 C.3     
   4 C4             2.1775     0.0187     1.2307 C.3     
   5 C5             2.1567     1.5485     1.2391 C.3     
   6 C6             1.4167     2.0553    -0.0004 C.3     
   7 O7             0.7614    -1.9398     1.2337 O.3     
   8 O8             0.6709    -0.4649    -1.1737 O.3     
   9 O9             2.0856     1.5945    -1.1761 O.3     
  10 O10            2.8686    -0.4547     2.3884 O.3     
  11 C11            3.5195    -1.6312     2.2749 C.2     
  12 C12            4.2261    -2.1603     3.3843 C.2     
  13 O13            3.4999    -2.2379     1.2207 O.2     
  14 C14            4.8778    -3.3383     3.2707 C.2     
  15 C15            5.6103    -3.8867     4.4206 C.ar    
  16 C16            5.6341    -3.1905     5.6342 C.ar    
  17 C17            6.3216    -3.7069     6.7107 C.ar    
  18 C18            6.9917    -4.9173     6.5951 C.ar    
  19 C19            6.9731    -5.6171     5.3886 C.ar    
  20 C20            6.2816    -5.1102     4.3068 C.ar    
  21 O21            7.6313    -6.8022     5.2800 O.3     
  22 O22            7.6677    -5.4213     7.6598 O.3     
  23 C23            1.3963     3.5622     0.0079 C.2     
  24 O24            1.4892     4.1619     1.0527 O.2     
  25 O25            1.2748     4.2381    -1.1455 O.3     
  26 Na26           1.2579     6.2247    -1.0309 Du      
  27 H27           -0.5459     1.8868    -0.8726 H       
  28 H28           -0.5289     1.8773     0.9072 H       
  29 H29           -1.0205    -0.3814     0.0098 H       
  30 H30            0.2319    -0.1594     2.1383 H       
  31 H31            2.6876    -0.3328     0.3339 H       
  32 H32            1.6465     1.9000     2.1359 H       
  33 H33            3.1793     1.9258     1.2314 H       
  34 H34           -0.1165    -2.3450     1.2399 H       
  35 H35            0.2557    -0.1806    -1.9994 H       
  36 H36            1.6703     1.8788    -2.0019 H       
  37 H37            4.2435    -1.6217     4.3202 H       
  38 H38            4.8604    -3.8769     2.3347 H       
  39 H39            5.1140    -2.2485     5.7270 H       
  40 H40            6.3396    -3.1686     7.6468 H       
  41 H41            6.2662    -5.6513     3.3722 H       
  42 H42            7.0938    -7.5730     5.5081 H       
  43 H43            7.1355    -5.9951     8.2278 H       
@<TRIPOS>BOND
   1    1    2 1
   2    1    6 1
   3    1   27 1
   4    1   28 1
   5    2    3 1
   6    2    8 1
   7    2   29 1
   8    3    4 1
   9    3    7 1
  10    3   30 1
  11    4    5 1
  12    4   10 1
  13    4   31 1
  14    5    6 1
  15    5   32 1
  16    5   33 1
  17    6    9 1
  18    6   23 1
  19    7   34 1
  20    8   35 1
  21    9   36 1
  22   10   11 1
  23   11   12 1
  24   11   13 2
  25   12   14 2
  26   12   37 1
  27   14   15 1
  28   14   38 1
  29   15   16 ar
  30   15   20 ar
  31   16   17 ar
  32   16   39 1
  33   17   18 ar
  34   17   40 1
  35   18   19 ar
  36   18   22 1
  37   19   20 ar
  38   19   21 1
  39   20   41 1
  40   21   42 1
  41   22   43 1
  42   23   24 2
  43   23   25 1
  44   25   26 1

#	End of record

