#	Name: ASD02500201
#	Creating user name:	WinNT
#	Creation time:	15. 06. 2019 20:22

#	Modifying user name:	WinNT
#	Modification time:	15. 06. 2019 20:22

#	Program:	/corina/corina34_cracker 3.40 0067  02.08.2006

@<TRIPOS>MOLECULE
ASD02500201
  63   67    0    0    0
SMALL
NO_CHARGES


@<TRIPOS>ATOM
   1 N1            -3.2632     5.6978    -0.3112 N.ar    
   2 C2            -4.3475     6.3732    -0.6051 C.ar    
   3 C3            -5.5192     6.2380     0.1367 C.ar    
   4 C4            -5.5572     5.3833     1.2012 C.ar    
   5 C5            -4.3910     4.6592     1.5136 C.ar    
   6 C6            -4.3543     3.7627     2.5934 C.ar    
   7 C7            -3.2067     3.0812     2.8634 C.ar    
   8 C8            -2.0673     3.2621     2.0824 C.ar    
   9 C9            -2.0678     4.1231     1.0283 C.ar    
  10 C10           -3.2333     4.8448     0.7178 C.ar    
  11 S11           -0.6125     4.3332     0.0573 S.o2    
  12 O12           -0.3844     5.7333    -0.0260 O.2     
  13 O13            0.3469     3.4185     0.5693 O.2     
  14 N14           -0.9700     3.8255    -1.4778 N.am    
  15 C15           -1.2098     2.4787    -1.7265 C.ar    
  16 C16           -0.8499     1.9236    -2.9518 C.ar    
  17 C17           -1.0859     0.5912    -3.2009 C.ar    
  18 C18           -1.6876    -0.2056    -2.2222 C.ar    
  19 C19           -2.0477     0.3546    -0.9932 C.ar    
  20 C20           -1.8038     1.6867    -0.7480 C.ar    
  21 C21           -0.2018     2.7832    -4.0063 C.3     
  22 C22           -1.9424    -1.6344    -2.4862 C.2     
  23 O23           -2.3701    -1.9858    -3.5689 O.2     
  24 N24           -1.7012    -2.5504    -1.5274 N.am    
  25 C25           -1.8631    -3.9844    -1.8052 C.3     
  26 C26           -0.5497    -4.7005    -1.4667 C.3     
  27 N27           -0.1197    -4.2831    -0.1248 N.am    
  28 C28            0.0422    -2.8491     0.1530 C.3     
  29 C29           -1.2658    -2.1333    -0.1871 C.3     
  30 C30            0.1215    -5.1991     0.8340 C.2     
  31 C31            0.6627    -4.7749     2.1411 C.ar    
  32 C32            0.0197    -5.1531     3.3242 C.ar    
  33 C33            0.5335    -4.7519     4.5437 C.ar    
  34 C34            1.6790    -3.9795     4.5934 C.ar    
  35 C35            2.3193    -3.6024     3.4256 C.ar    
  36 C36            1.8220    -3.9992     2.2022 C.ar    
  37 O37           -0.1063    -6.3744     0.6230 O.2     
  38 F38           -1.1000    -5.9075     3.2757 F       
  39 H39           -4.3321     7.0529    -1.4443 H       
  40 H40           -6.3965     6.8088    -0.1298 H       
  41 H41           -6.4568     5.2664     1.7873 H       
  42 H42           -5.2310     3.6146     3.2064 H       
  43 H43           -3.1793     2.3917     3.6942 H       
  44 H44           -1.1691     2.7104     2.3173 H       
  45 H45           -1.0121     4.4677    -2.2036 H       
  46 H46           -0.8069     0.1613    -4.1515 H       
  47 H47           -2.5126    -0.2583    -0.2353 H       
  48 H48           -2.0775     2.1191     0.2031 H       
  49 H49            0.8808     2.7561    -3.8823 H       
  50 H50           -0.4639     2.4055    -4.9945 H       
  51 H51           -0.5535     3.8099    -3.9047 H       
  52 H52           -2.6683    -4.3874    -1.1910 H       
  53 H53           -2.0970    -4.1286    -2.8600 H       
  54 H54           -0.7067    -5.7790    -1.4816 H       
  55 H55            0.2134    -4.4293    -2.1962 H       
  56 H56            0.2761    -2.7049     1.2078 H       
  57 H57            0.8474    -2.4461    -0.4612 H       
  58 H58           -1.1053    -1.0553    -0.1736 H       
  59 H59           -2.0275    -2.4015     0.5449 H       
  60 H60            0.0389    -5.0421     5.4588 H       
  61 H61            2.0761    -3.6684     5.5484 H       
  62 H62            3.2137    -2.9989     3.4730 H       
  63 H63            2.3261    -3.7072     1.2928 H       
@<TRIPOS>BOND
   1    1    2 ar
   2    1   10 ar
   3    2    3 ar
   4    2   39 1
   5    3    4 ar
   6    3   40 1
   7    4    5 ar
   8    4   41 1
   9    5    6 ar
  10    5   10 ar
  11    6    7 ar
  12    6   42 1
  13    7    8 ar
  14    7   43 1
  15    8    9 ar
  16    8   44 1
  17    9   10 ar
  18    9   11 1
  19   11   12 2
  20   11   13 2
  21   11   14 am
  22   14   15 1
  23   14   45 1
  24   15   16 ar
  25   15   20 ar
  26   16   17 ar
  27   16   21 1
  28   17   18 ar
  29   17   46 1
  30   18   19 ar
  31   18   22 1
  32   19   20 ar
  33   19   47 1
  34   20   48 1
  35   21   49 1
  36   21   50 1
  37   21   51 1
  38   22   23 2
  39   22   24 am
  40   24   25 1
  41   24   29 1
  42   25   26 1
  43   25   52 1
  44   25   53 1
  45   26   27 1
  46   26   54 1
  47   26   55 1
  48   27   28 1
  49   27   30 am
  50   28   29 1
  51   28   56 1
  52   28   57 1
  53   29   58 1
  54   29   59 1
  55   30   31 1
  56   30   37 2
  57   31   32 ar
  58   31   36 ar
  59   32   33 ar
  60   32   38 1
  61   33   34 ar
  62   33   60 1
  63   34   35 ar
  64   34   61 1
  65   35   36 ar
  66   35   62 1
  67   36   63 1

#	End of record

