#	Name: ASD02198861
#	Creating user name:	WinNT
#	Creation time:	15. 06. 2019 20:20

#	Modifying user name:	WinNT
#	Modification time:	15. 06. 2019 20:20

#	Program:	/corina/corina34_cracker 3.40 0067  02.08.2006

@<TRIPOS>MOLECULE
ASD02198861
  50   54    0    0    0
SMALL
NO_CHARGES


@<TRIPOS>ATOM
   1 C1            -0.0433     1.5019    -0.1150 C.2     
   2 C2            -0.0731     0.1621     0.0975 C.2     
   3 N3             1.0710    -0.5394     0.2603 N.pl3   
   4 N4             2.2355    -0.0047     0.2267 N.2     
   5 C5             2.4071     1.2849     0.0281 C.2     
   6 C6             1.2215     2.1359    -0.1604 C.2     
   7 C7             0.9794    -1.9186     0.4768 C.ar    
   8 C8             1.5808    -2.4906     1.5972 C.ar    
   9 C9             1.4878    -3.8560     1.8087 C.ar    
  10 C10            0.7966    -4.6516     0.9056 C.ar    
  11 C11            0.1981    -4.0796    -0.2102 C.ar    
  12 C12            0.2845    -2.7185    -0.4210 C.ar    
  13 C13            3.7640     1.8673    -0.0040 C.2     
  14 N14            4.3064     2.6070    -1.0171 N.pl3   
  15 N15            5.6082     2.9585    -0.6390 N.2     
  16 C16            5.8516     2.4590     0.5465 C.2     
  17 C17            4.7193     1.7720     0.9841 C.2     
  18 C18            3.6739     2.9514    -2.2184 C.ar    
  19 C19            3.8079     4.2343    -2.7323 C.ar    
  20 C20            3.1831     4.5716    -3.9173 C.ar    
  21 C21            2.4243     3.6334    -4.5919 C.ar    
  22 C22            2.2880     2.3536    -4.0825 C.ar    
  23 C23            2.9162     2.0086    -2.9008 C.ar    
  24 O24            1.3245     3.3390    -0.3487 O.2     
  25 N25            0.7027    -6.0336     1.1192 N.pl3   
  26 C26            0.0534    -6.9242     0.3085 C.2     
  27 C27            0.1853    -8.1558     0.8446 C.2     
  28 C28            0.9425    -8.0243     2.0283 C.2     
  29 C29            1.2502    -6.7178     2.1701 C.2     
  30 F30           -0.3158    -9.3045     0.3402 F       
  31 F31            1.2987    -9.0242     2.8641 F       
  32 Cl32           1.3337     1.1787    -4.9326 Cl      
  33 O33            2.2574    -1.7095     2.4799 O.3     
  34 C34            2.8481    -2.3637     3.6047 C.3     
  35 H35           -0.9547     2.0656    -0.2496 H       
  36 H36           -1.0230    -0.3503     0.1374 H       
  37 H37            1.9530    -4.3015     2.6756 H       
  38 H38           -0.3389    -4.7007    -0.9118 H       
  39 H39           -0.1819    -2.2761    -1.2889 H       
  40 H40            6.7751     2.5648     1.0964 H       
  41 H41            4.6132     1.2525     1.9250 H       
  42 H42            4.3999     4.9682    -2.2057 H       
  43 H43            3.2874     5.5695    -4.3169 H       
  44 H44            1.9365     3.8997    -5.5180 H       
  45 H45            2.8099     1.0101    -2.5034 H       
  46 H46           -0.4740    -6.6832    -0.6027 H       
  47 H47            1.8238    -6.2861     2.9769 H       
  48 H48            3.3561    -1.6275     4.2277 H       
  49 H49            2.0705    -2.8579     4.1872 H       
  50 H50            3.5682    -3.1046     3.2574 H       
@<TRIPOS>BOND
   1    1    2 2
   2    1    6 1
   3    1   35 1
   4    2    3 1
   5    2   36 1
   6    3    4 1
   7    3    7 1
   8    4    5 2
   9    5    6 1
  10    5   13 1
  11    6   24 2
  12    7    8 ar
  13    7   12 ar
  14    8    9 ar
  15    8   33 1
  16    9   10 ar
  17    9   37 1
  18   10   11 ar
  19   10   25 1
  20   11   12 ar
  21   11   38 1
  22   12   39 1
  23   13   14 1
  24   13   17 2
  25   14   15 1
  26   14   18 1
  27   15   16 2
  28   16   17 1
  29   16   40 1
  30   17   41 1
  31   18   19 ar
  32   18   23 ar
  33   19   20 ar
  34   19   42 1
  35   20   21 ar
  36   20   43 1
  37   21   22 ar
  38   21   44 1
  39   22   23 ar
  40   22   32 1
  41   23   45 1
  42   25   26 1
  43   25   29 1
  44   26   27 2
  45   26   46 1
  46   27   28 1
  47   27   30 1
  48   28   29 2
  49   28   31 1
  50   29   47 1
  51   33   34 1
  52   34   48 1
  53   34   49 1
  54   34   50 1

#	End of record

