#	Name: ASD01420017
#	Creating user name:	WinNT
#	Creation time:	15. 06. 2019 19:20

#	Modifying user name:	WinNT
#	Modification time:	15. 06. 2019 19:20

#	Program:	/corina/corina34_cracker 3.40 0067  02.08.2006

@<TRIPOS>MOLECULE
ASD01420017
  21   21    0    0    0
SMALL
NO_CHARGES


@<TRIPOS>ATOM
   1 C1            -0.0180     1.4762     0.0102 C.3     
   2 N2             0.0021    -0.0041     0.0020 N.3     
   3 C3             1.2737    -0.3386    -0.6784 C.3     
   4 C4             2.1991     0.8266    -0.4104 C.ar    
   5 C5             3.5709     0.9522    -0.5084 C.ar    
   6 C6             4.1806     2.1587    -0.1971 C.ar    
   7 C7             3.4099     3.2373     0.2126 C.ar    
   8 C8             2.0382     3.1074     0.3093 C.ar    
   9 C9             1.4320     1.9046    -0.0014 C.ar    
  10 O10            5.5304     2.2838    -0.2926 O.3     
  11 H11           -0.5283     1.8508    -0.8772 H       
  12 H12           -0.5112     1.8412     0.9111 H       
  13 H13           -0.0126    -0.3711     0.9418 H       
  14 H14            1.6927    -1.2554    -0.2638 H       
  15 H15            1.1092    -0.4500    -1.7502 H       
  16 H16            4.1689     0.1113    -0.8271 H       
  17 H17            3.8822     4.1776     0.4559 H       
  18 H18            1.4383     3.9470     0.6281 H       
  19 H19            5.8376     2.5791    -1.1607 H       
  20 Br20          10.8376     9.1776     5.9418 Br      
  21 H21           10.8376    10.6876     5.9418 H       
@<TRIPOS>BOND
   1    1    2 1
   2    1    9 1
   3    1   11 1
   4    1   12 1
   5    2    3 1
   6    2   13 1
   7    3    4 1
   8    3   14 1
   9    3   15 1
  10    4    5 ar
  11    4    9 ar
  12    5    6 ar
  13    5   16 1
  14    6    7 ar
  15    6   10 1
  16    7    8 ar
  17    7   17 1
  18    8    9 ar
  19    8   18 1
  20   10   19 1
  21   20   21 1

#	End of record

