#	Name: ASD09800018
#	Creating user name:	WinNT
#	Creation time:	15. 06. 2019 21:24

#	Modifying user name:	WinNT
#	Modification time:	15. 06. 2019 21:24

#	Program:	/corina/corina34_cracker 3.40 0067  02.08.2006

@<TRIPOS>MOLECULE
ASD09800018
  81   87    0    0    0
SMALL
NO_CHARGES


@<TRIPOS>ATOM
   1 C1             0.1057     1.5486    -1.4100 C.ar    
   2 C2             0.0732     0.1695    -1.4562 C.ar    
   3 C3             1.1695    -0.5736    -1.0461 C.ar    
   4 C4             2.3060     0.0558    -0.5875 C.ar    
   5 C5             2.3523     1.4497    -0.5360 C.ar    
   6 C6             1.2405     2.1977    -0.9515 C.ar    
   7 N7             3.3001     2.3447    -0.1446 N.2     
   8 C8             2.8252     3.5542    -0.3010 C.2     
   9 O9             1.5738     3.4990    -0.7904 O.3     
  10 N10            3.5072     4.7141    -0.0066 N.pl3   
  11 C11            2.8545     5.9474    -0.0845 C.ar    
  12 C12            1.4907     6.0000    -0.2733 C.ar    
  13 C13            3.5867     7.1479     0.0355 C.ar    
  14 C14            2.9062     8.3873    -0.0459 C.ar    
  15 C15            1.5107     8.4002    -0.2446 C.ar    
  16 C16            0.8286     7.2216    -0.3526 C.ar    
  17 C17            4.9763     7.1363     0.2344 C.ar    
  18 C18            5.6510     8.3137     0.3462 C.ar    
  19 C19            4.9819     9.5333     0.2662 C.ar    
  20 C20            3.6351     9.5820     0.0735 C.ar    
  21 O21            0.8449     9.5823    -0.3241 O.3     
  22 C22            0.7020    10.1511    -1.5459 C.ar    
  23 C23            0.0221    11.3698    -1.6709 C.ar    
  24 N24            1.2098     9.5551    -2.6111 N.ar    
  25 C25           -0.1139    11.9386    -2.9389 C.ar    
  26 C26            0.4320    11.2698    -4.0223 C.ar    
  27 C27            1.0939    10.0736    -3.8188 C.ar    
  28 C28           -0.5433    12.0430    -0.4785 C.ar    
  29 N29           -0.4134    11.4994     0.7300 N.ar    
  30 C30           -1.2167    13.2622    -0.6039 C.ar    
  31 C31           -1.7269    13.8532     0.5372 C.ar    
  32 N32           -1.5645    13.2526     1.7060 N.ar    
  33 C33           -0.9175    12.0998     1.7966 C.ar    
  34 N34           -0.7702    11.5050     3.0378 N.pl3   
  35 C35           -1.3263    12.1501     4.2298 C.3     
  36 C36           -1.0265    11.2922     5.4607 C.3     
  37 N37           -1.5841    11.9390     6.6560 N.3     
  38 C38           -1.3149    11.1417     7.8600 C.3     
  39 C39           -1.3209    12.0544     9.0880 C.3     
  40 C40           -1.0405    11.2240    10.3420 C.3     
  41 C41           -2.1223    10.1533    10.4971 C.3     
  42 C42           -2.1164     9.2406     9.2692 C.3     
  43 C43           -2.3968    10.0710     8.0151 C.3     
  44 N44           -1.8531     9.3560    11.7012 N.3     
  45 C45           -0.6631     7.2445    -0.5654 C.3     
  46 H46           -0.7507     2.1210    -1.7349 H       
  47 H47           -0.8126    -0.3343    -1.8139 H       
  48 H48            1.1323    -1.6522    -1.0861 H       
  49 H49            3.1574    -0.5271    -0.2688 H       
  50 H50            4.4405     4.6749     0.2548 H       
  51 H51            0.9286     5.0820    -0.3611 H       
  52 H52            5.5076     6.1982     0.2987 H       
  53 H53            6.7200     8.3021     0.4995 H       
  54 H54            5.5399    10.4534     0.3580 H       
  55 H55            3.1296    10.5345     0.0134 H       
  56 H56           -0.6322    12.8767    -3.0717 H       
  57 H57            0.3449    11.6818    -5.0168 H       
  58 H58            1.5198     9.5523    -4.6633 H       
  59 H59           -1.3351    13.7313    -1.5695 H       
  60 H60           -2.2521    14.7950     0.4759 H       
  61 H61           -0.2988    10.6611     3.1183 H       
  62 H62           -0.8749    13.1344     4.3542 H       
  63 H63           -2.4050    12.2569     4.1153 H       
  64 H64           -1.4779    10.3079     5.3362 H       
  65 H65            0.0522    11.1854     5.5752 H       
  66 H66           -1.2296    12.8782     6.7575 H       
  67 H67           -0.3401    10.6627     7.7681 H       
  68 H68           -0.5501    12.8172     8.9774 H       
  69 H69           -2.2956    12.5335     9.1798 H       
  70 H70           -0.0657    10.7450    10.2501 H       
  71 H71           -1.0447    11.8743    11.2168 H       
  72 H72           -3.0971    10.6324    10.5890 H       
  73 H73           -1.1416     8.7616     9.1773 H       
  74 H74           -2.8871     8.4778     9.3797 H       
  75 H75           -3.3715    10.5501     8.1070 H       
  76 H76           -2.3925     9.4208     7.1403 H       
  77 H77           -2.5544     8.6413    11.8259 H       
  78 H78           -0.9284     8.9536    11.6691 H       
  79 H79           -0.8775     7.2592    -1.6340 H       
  80 H80           -1.1077     6.3556    -0.1179 H       
  81 H81           -1.0832     8.1353    -0.0983 H       
@<TRIPOS>BOND
   1    1    2 ar
   2    1    6 ar
   3    1   46 1
   4    2    3 ar
   5    2   47 1
   6    3    4 ar
   7    3   48 1
   8    4    5 ar
   9    4   49 1
  10    5    6 ar
  11    5    7 1
  12    6    9 1
  13    7    8 2
  14    8    9 1
  15    8   10 1
  16   10   11 1
  17   10   50 1
  18   11   12 ar
  19   11   13 ar
  20   12   16 ar
  21   12   51 1
  22   13   14 ar
  23   13   17 ar
  24   14   15 ar
  25   14   20 ar
  26   15   16 ar
  27   15   21 1
  28   16   45 1
  29   17   18 ar
  30   17   52 1
  31   18   19 ar
  32   18   53 1
  33   19   20 ar
  34   19   54 1
  35   20   55 1
  36   21   22 1
  37   22   23 ar
  38   22   24 ar
  39   23   25 ar
  40   23   28 1
  41   24   27 ar
  42   25   26 ar
  43   25   56 1
  44   26   27 ar
  45   26   57 1
  46   27   58 1
  47   28   29 ar
  48   28   30 ar
  49   29   33 ar
  50   30   31 ar
  51   30   59 1
  52   31   32 ar
  53   31   60 1
  54   32   33 ar
  55   33   34 1
  56   34   35 1
  57   34   61 1
  58   35   36 1
  59   35   62 1
  60   35   63 1
  61   36   37 1
  62   36   64 1
  63   36   65 1
  64   37   38 1
  65   37   66 1
  66   38   39 1
  67   38   43 1
  68   38   67 1
  69   39   40 1
  70   39   68 1
  71   39   69 1
  72   40   41 1
  73   40   70 1
  74   40   71 1
  75   41   42 1
  76   41   44 1
  77   41   72 1
  78   42   43 1
  79   42   73 1
  80   42   74 1
  81   43   75 1
  82   43   76 1
  83   44   77 1
  84   44   78 1
  85   45   79 1
  86   45   80 1
  87   45   81 1

#	End of record

