#	Name: ASD01883548
#	Creating user name:	WinNT
#	Creation time:	15. 06. 2019 19:46

#	Modifying user name:	WinNT
#	Modification time:	15. 06. 2019 19:46

#	Program:	/corina/corina34_cracker 3.40 0067  02.08.2006

@<TRIPOS>MOLECULE
ASD01883548
  50   53    0    0    0
SMALL
NO_CHARGES


@<TRIPOS>ATOM
   1 C1            -0.0171     1.4071     0.0098 C.2     
   2 C2            -0.8717     1.4205    -1.1132 C.2     
   3 C3            -2.0207     0.7137    -1.0894 C.2     
   4 N4            -2.3701    -0.0149     0.0042 N.am    
   5 C5            -1.5828    -0.0533     1.0951 C.2     
   6 C6            -0.3781     0.6573     1.1179 C.2     
   7 O7            -1.9184    -0.7148     2.0656 O.2     
   8 N8             1.1653     2.1265     0.0024 N.pl3   
   9 C9             1.1493     3.5921    -0.0998 C.3     
  10 C10            2.0460     4.0148    -1.2677 C.3     
  11 C11            3.4404     3.4132    -1.0786 C.3     
  12 C12            3.3425     1.8859    -1.0731 C.3     
  13 C13            2.4602     1.4395     0.1026 C.3     
  14 C14           -3.6252    -0.7704    -0.0048 C.3     
  15 C15            4.3351     3.8548    -2.2081 C.ar    
  16 C16            5.6512     3.4342    -2.2522 C.ar    
  17 C17            6.4719     3.8393    -3.2882 C.ar    
  18 C18            5.9763     4.6646    -4.2803 C.ar    
  19 C19            4.6600     5.0844    -4.2366 C.ar    
  20 C20            3.8381     4.6758    -3.2030 C.ar    
  21 C21           -3.3696    -2.1774    -0.5488 C.3     
  22 Cl22           0.6432     0.6129     2.5210 Cl      
  23 C23           -4.5377    -3.1654    -0.5293 C.3     
  24 C24           -4.0642    -2.5667    -1.8553 C.3     
  25 C25            4.0256     3.8910     0.2518 C.3     
  26 F26            5.3004     3.3411     0.4249 F       
  27 H27           -0.6070     1.9951    -1.9886 H       
  28 H28           -2.6721     0.7270    -1.9508 H       
  29 H29            0.1301     3.9347    -0.2790 H       
  30 H30            1.5257     4.0271     0.8260 H       
  31 H31            1.6184     3.6550    -2.2035 H       
  32 H32            2.1195     5.1020    -1.2950 H       
  33 H33            2.9026     1.5462    -2.0107 H       
  34 H34            4.3387     1.4579    -0.9618 H       
  35 H35            2.9459     1.6993     1.0432 H       
  36 H36            2.3053     0.3616     0.0546 H       
  37 H37           -4.0155    -0.8388     1.0106 H       
  38 H38           -4.3509    -0.2618    -0.6395 H       
  39 H39            6.0384     2.7895    -1.4771 H       
  40 H40            7.5003     3.5113    -3.3223 H       
  41 H41            6.6177     4.9817    -5.0893 H       
  42 H42            4.2729     5.7295    -5.0116 H       
  43 H43            2.8097     5.0038    -3.1689 H       
  44 H44           -2.3706    -2.5757    -0.3715 H       
  45 H45           -4.3071    -4.2137    -0.3395 H       
  46 H46           -5.4882    -2.8130    -0.1289 H       
  47 H47           -4.7033    -1.8205    -2.3273 H       
  48 H48           -3.5221    -3.2211    -2.5379 H       
  49 H49            4.0966     4.9787     0.2478 H       
  50 H50            3.3784     3.5721     1.0689 H       
@<TRIPOS>BOND
   1    1    2 1
   2    1    8 1
   3    1    6 2
   4    2    3 2
   5    2   27 1
   6    3    4 1
   7    3   28 1
   8    4    5 am
   9    4   14 1
  10    5    6 1
  11    5    7 2
  12    6   22 1
  13    8    9 1
  14    8   13 1
  15    9   10 1
  16    9   29 1
  17    9   30 1
  18   10   11 1
  19   10   31 1
  20   10   32 1
  21   11   15 1
  22   11   12 1
  23   11   25 1
  24   12   13 1
  25   12   33 1
  26   12   34 1
  27   13   35 1
  28   13   36 1
  29   14   21 1
  30   14   37 1
  31   14   38 1
  32   15   16 ar
  33   15   20 ar
  34   16   17 ar
  35   16   39 1
  36   17   18 ar
  37   17   40 1
  38   18   19 ar
  39   18   41 1
  40   19   20 ar
  41   19   42 1
  42   20   43 1
  43   21   23 1
  44   21   24 1
  45   21   44 1
  46   23   24 1
  47   23   45 1
  48   23   46 1
  49   24   47 1
  50   24   48 1
  51   25   26 1
  52   25   49 1
  53   25   50 1

#	End of record

