#	Name: ASD01720015
#	Creating user name:	WinNT
#	Creation time:	15. 06. 2019 19:23

#	Modifying user name:	WinNT
#	Modification time:	15. 06. 2019 19:23

#	Program:	/corina/corina34_cracker 3.40 0067  02.08.2006

@<TRIPOS>MOLECULE
ASD01720015
  19   18    0    0    0
SMALL
NO_CHARGES


@<TRIPOS>ATOM
   1 O1             0.0021    -0.0041     0.0020 O.2     
   2 C2            -0.0143     1.2034     0.0087 C.2     
   3 C3             1.2804     1.9746     0.0004 C.3     
   4 O4             2.3790     1.0609    -0.0150 O.3     
   5 C5             1.3614     2.8485     1.2537 C.3     
   6 C6             2.6147     3.7235     1.1851 C.3     
   7 O7             3.7776     2.8940     1.2268 O.3     
   8 C8             2.6311     4.6850     2.3752 C.3     
   9 O9             3.7383     5.5796     2.2494 O.3     
  10 H10           -0.9568     1.7306     0.0160 H       
  11 H11            1.3211     2.6067    -0.8866 H       
  12 H12            2.4062     0.4657     0.7467 H       
  13 H13            0.4776     3.4837     1.3114 H       
  14 H14            1.4102     2.2125     2.1376 H       
  15 H15            2.6088     4.2945     0.2567 H       
  16 H16            3.8485     2.3561     2.0273 H       
  17 H17            1.7029     5.2560     2.3937 H       
  18 H18            2.7266     4.1165     3.3003 H       
  19 H19            3.8111     6.2191     2.9711 H       
@<TRIPOS>BOND
   1    1    2 2
   2    2    3 1
   3    2   10 1
   4    3    4 1
   5    3    5 1
   6    3   11 1
   7    4   12 1
   8    5    6 1
   9    5   13 1
  10    5   14 1
  11    6    7 1
  12    6    8 1
  13    6   15 1
  14    7   16 1
  15    8    9 1
  16    8   17 1
  17    8   18 1
  18    9   19 1

#	End of record

