#	Name: ASD08150628
#	Creating user name:	WinNT
#	Creation time:	15. 06. 2019 21:16

#	Modifying user name:	WinNT
#	Modification time:	15. 06. 2019 21:16

#	Program:	/corina/corina34_cracker 3.40 0067  02.08.2006

@<TRIPOS>MOLECULE
ASD08150628
  53   58    0    0    0
SMALL
NO_CHARGES


@<TRIPOS>ATOM
   1 N1             0.8932     2.9303    -1.5608 N.am    
   2 C2             1.3140     2.2932    -2.6707 C.2     
   3 C3             2.5233     1.5689    -2.6749 C.2     
   4 C4             3.2845     1.5039    -1.5529 C.2     
   5 C5             2.8451     2.1734    -0.3836 C.ar    
   6 C6             3.5967     2.1383     0.8065 C.ar    
   7 N7             3.1889     2.7569     1.8838 N.ar    
   8 C8             2.0436     3.4547     1.9206 C.ar    
   9 C9             1.2236     3.5446     0.7688 C.ar    
  10 C10            1.6361     2.8856    -0.4132 C.ar    
  11 C11            0.0314     4.2734     0.8178 C.ar    
  12 C12           -0.3360     4.9020     1.9967 C.ar    
  13 C13            0.4809     4.8089     3.1323 C.ar    
  14 C14            1.6432     4.1038     3.1001 C.ar    
  15 O15            0.6394     2.3433    -3.6852 O.2     
  16 C16           -1.5989     5.6772     2.0573 C.ar    
  17 C17           -0.3099     3.6480    -1.5838 C.ar    
  18 C18           -0.3019     5.0081    -1.8660 C.ar    
  19 C19           -1.4868     5.7152    -1.8887 C.ar    
  20 C20           -2.6879     5.0665    -1.6293 C.ar    
  21 C21           -2.6957     3.7065    -1.3471 C.ar    
  22 C22           -1.5108     2.9984    -1.3301 C.ar    
  23 N23           -3.8883     5.7827    -1.6518 N.pl3   
  24 C24           -2.7364     5.2310     1.3657 C.ar    
  25 N25           -3.8640     5.8945     1.4017 N.ar    
  26 C26           -3.9893     7.0292     2.0981 C.ar    
  27 C27           -2.8856     7.5448     2.8232 C.ar    
  28 C28           -1.6666     6.8455     2.8026 C.ar    
  29 C29           -5.2088     7.7281     2.1242 C.ar    
  30 C30           -5.3124     8.8811     2.8397 C.ar    
  31 C31           -4.2261     9.3864     3.5515 C.ar    
  32 C32           -3.0289     8.7385     3.5508 C.ar    
  33 C33           -3.9982     3.0028    -1.0653 C.3     
  34 F34           -3.7515     1.6494    -0.8112 F       
  35 F35           -4.6096     3.5831     0.0512 F       
  36 F36           -4.8425     3.1227    -2.1743 F       
  37 H37            2.8451     1.0639    -3.5737 H       
  38 H38            4.2114     0.9496    -1.5511 H       
  39 H39            4.5269     1.5901     0.8301 H       
  40 H40           -0.5981     4.3462    -0.0567 H       
  41 H41            0.1831     5.3039     4.0448 H       
  42 H42            2.2602     4.0423     3.9844 H       
  43 H43            0.6317     5.5124    -2.0672 H       
  44 H44           -1.4806     6.7727    -2.1077 H       
  45 H45           -1.5172     1.9400    -1.1151 H       
  46 H46           -3.8827     6.7325    -1.8485 H       
  47 H47           -4.7267     5.3298    -1.4707 H       
  48 H48           -2.6794     4.3190     0.7901 H       
  49 H49           -0.8064     7.2107     3.3440 H       
  50 H50           -6.0608     7.3514     1.5777 H       
  51 H51           -6.2519     9.4136     2.8559 H       
  52 H52           -4.3353    10.3040     4.1106 H       
  53 H53           -2.1941     9.1394     4.1064 H       
@<TRIPOS>BOND
   1    1    2 am
   2    1   10 1
   3    1   17 1
   4    2    3 1
   5    2   15 2
   6    3    4 2
   7    3   37 1
   8    4    5 1
   9    4   38 1
  10    5    6 ar
  11    5   10 ar
  12    6    7 ar
  13    6   39 1
  14    7    8 ar
  15    8    9 ar
  16    8   14 ar
  17    9   10 ar
  18    9   11 ar
  19   11   12 ar
  20   11   40 1
  21   12   13 ar
  22   12   16 1
  23   13   14 ar
  24   13   41 1
  25   14   42 1
  26   16   24 ar
  27   16   28 ar
  28   17   18 ar
  29   17   22 ar
  30   18   19 ar
  31   18   43 1
  32   19   20 ar
  33   19   44 1
  34   20   21 ar
  35   20   23 1
  36   21   22 ar
  37   21   33 1
  38   22   45 1
  39   23   46 1
  40   23   47 1
  41   24   25 ar
  42   24   48 1
  43   25   26 ar
  44   26   27 ar
  45   26   29 ar
  46   27   28 ar
  47   27   32 ar
  48   28   49 1
  49   29   30 ar
  50   29   50 1
  51   30   31 ar
  52   30   51 1
  53   31   32 ar
  54   31   52 1
  55   32   53 1
  56   33   34 1
  57   33   35 1
  58   33   36 1

#	End of record

