#	Name: ASD00311163
#	Creating user name:	WinNT
#	Creation time:	15. 06. 2019 18:34

#	Modifying user name:	WinNT
#	Modification time:	15. 06. 2019 18:34

#	Program:	/corina/corina34_cracker 3.40 0067  02.08.2006

@<TRIPOS>MOLECULE
ASD00311163
  37   40    0    0    0
SMALL
NO_CHARGES


@<TRIPOS>ATOM
   1 C1             0.0052     1.3782     0.2221 C.2     
   2 C2             0.0451     0.0013     0.3251 C.2     
   3 C3             1.2789    -0.6730     0.0901 C.2     
   4 C4             2.4099     0.0654    -0.2360 C.2     
   5 C5             2.3156     1.4705    -0.3286 C.2     
   6 N6             1.1445     2.0861    -0.1039 N.am    
   7 C7            -1.2557    -0.5650     0.6776 C.2     
   8 C8            -2.2239     0.3370     0.8319 C.2     
   9 S9            -1.6206     1.9606     0.5648 S.3     
  10 O10            3.3029     2.1283    -0.6143 O.2     
  11 C11           -1.4787    -2.0197     0.8484 C.ar    
  12 C12           -1.8244    -2.5330     2.0981 C.ar    
  13 C13           -2.0308    -3.8888     2.2509 C.ar    
  14 C14           -1.8949    -4.7384     1.1676 C.ar    
  15 C15           -1.5521    -4.2351    -0.0746 C.ar    
  16 C16           -1.3493    -2.8805    -0.2412 C.ar    
  17 O17            4.8288    -0.3925     0.2364 O.3     
  18 C18            5.8626    -1.2306    -0.2966 C.3     
  19 N19            5.2241    -1.9650    -1.4009 N.pl3   
  20 C20            3.8969    -1.5194    -1.4383 C.2     
  21 C21            3.6984    -0.6135    -0.4830 C.2     
  22 C22            5.8483    -2.9570    -2.2798 C.3     
  23 O23            1.3483    -2.0224     0.1844 O.3     
  24 Cl24          -3.8651    -0.0449     1.2495 Cl      
  25 H25            1.0976     3.0526    -0.1718 H       
  26 H26           -1.9301    -1.8708     2.9447 H       
  27 H27           -2.2986    -4.2875     3.2183 H       
  28 H28           -2.0567    -5.7989     1.2923 H       
  29 H29           -1.4471    -4.9034    -0.9165 H       
  30 H30           -1.0864    -2.4881    -1.2125 H       
  31 H31            6.6867    -0.6237    -0.6716 H       
  32 H32            6.2179    -1.9248     0.4648 H       
  33 H33            3.1470    -1.8596    -2.1371 H       
  34 H34            5.7343    -3.9502    -1.8454 H       
  35 H35            5.3668    -2.9305    -3.2573 H       
  36 H36            6.9083    -2.7284    -2.3906 H       
  37 H37            2.2421    -2.3781     0.0860 H       
@<TRIPOS>BOND
   1    1    2 2
   2    1    6 1
   3    1    9 1
   4    2    3 1
   5    2    7 1
   6    3    4 2
   7    3   23 1
   8    4    5 1
   9    4   21 1
  10    5    6 am
  11    5   10 2
  12    6   25 1
  13    7    8 2
  14    7   11 1
  15    8    9 1
  16    8   24 1
  17   11   12 ar
  18   11   16 ar
  19   12   13 ar
  20   12   26 1
  21   13   14 ar
  22   13   27 1
  23   14   15 ar
  24   14   28 1
  25   15   16 ar
  26   15   29 1
  27   16   30 1
  28   17   18 1
  29   17   21 1
  30   18   19 1
  31   18   31 1
  32   18   32 1
  33   19   20 1
  34   19   22 1
  35   20   21 2
  36   20   33 1
  37   22   34 1
  38   22   35 1
  39   22   36 1
  40   23   37 1

#	End of record

