#	Name: ASD01141021
#	Creating user name:	WinNT
#	Creation time:	15. 06. 2019 19:01

#	Modifying user name:	WinNT
#	Modification time:	15. 06. 2019 19:01

#	Program:	/corina/corina34_cracker 3.40 0067  02.08.2006

@<TRIPOS>MOLECULE
ASD01141021
  43   45    0    0    0
SMALL
NO_CHARGES


@<TRIPOS>ATOM
   1 P1            -0.0180     1.4758     0.0102 P.3     
   2 O2             0.0021    -0.0041     0.0020 O.2     
   3 O3             1.4924     2.0330    -0.0013 O.3     
   4 O4            -0.7967     2.0091    -1.2942 O.3     
   5 O5            -0.7716     1.9950     1.3348 O.3     
   6 C6             2.2672     1.5508     1.0058 C.ar    
   7 C7             2.9971     0.3852     0.8238 C.ar    
   8 C8             3.7838    -0.1029     1.8490 C.ar    
   9 C9             3.8441     0.5692     3.0558 C.ar    
  10 C10            3.1173     1.7309     3.2399 C.ar    
  11 C11            2.3339     2.2265     2.2156 C.ar    
  12 C12           -3.6229    -0.1706    -1.9250 C.2     
  13 C13           -4.7338     0.4141    -1.1012 C.3     
  14 C14           -4.1731     1.3943    -0.0683 C.3     
  15 C15           -3.2256     2.3682    -0.7842 C.3     
  16 N16           -2.1412     1.5735    -1.3805 N.pl3   
  17 N17           -2.4630     0.3777    -2.0361 N.2     
  18 C18           -3.8705    -1.4383    -2.6371 C.ar    
  19 C19           -2.8628    -2.0149    -3.4139 C.ar    
  20 C20           -3.1007    -3.2007    -4.0768 C.ar    
  21 C21           -4.3352    -3.8192    -3.9740 C.ar    
  22 C22           -5.3383    -3.2531    -3.2057 C.ar    
  23 C23           -5.1117    -2.0706    -2.5330 C.ar    
  24 Br24          -4.6527    -5.4442    -4.8875 Br      
  25 C25           -0.9548     3.3804     1.6335 C.3     
  26 H26            2.9500    -0.1404    -0.1185 H       
  27 H27            4.3520    -1.0105     1.7079 H       
  28 H28            4.4598     0.1860     3.8561 H       
  29 H29            3.1655     2.2537     4.1837 H       
  30 H30            1.7701     3.1365     2.3582 H       
  31 H31           -5.4300     0.9389    -1.7554 H       
  32 H32           -5.2622    -0.3885    -0.5867 H       
  33 H33           -4.9908     1.9499     0.3908 H       
  34 H34           -3.6243     0.8456     0.6971 H       
  35 H35           -3.7656     2.9026    -1.5657 H       
  36 H36           -2.8131     3.0777    -0.0668 H       
  37 H37           -1.8997    -1.5330    -3.4954 H       
  38 H38           -2.3225    -3.6475    -4.6777 H       
  39 H39           -6.2991    -3.7405    -3.1299 H       
  40 H40           -5.8935    -1.6323    -1.9304 H       
  41 H41            0.0175     3.8666     1.7128 H       
  42 H42           -1.5323     3.8504     0.8375 H       
  43 H43           -1.4893     3.4808     2.5781 H       
@<TRIPOS>BOND
   1    1    2 2
   2    1    3 1
   3    1    4 1
   4    1    5 1
   5    3    6 1
   6    4   16 1
   7    5   25 1
   8    6    7 ar
   9    6   11 ar
  10    7    8 ar
  11    7   26 1
  12    8    9 ar
  13    8   27 1
  14    9   10 ar
  15    9   28 1
  16   10   11 ar
  17   10   29 1
  18   11   30 1
  19   12   13 1
  20   12   17 2
  21   12   18 1
  22   13   14 1
  23   13   31 1
  24   13   32 1
  25   14   15 1
  26   14   33 1
  27   14   34 1
  28   15   16 1
  29   15   35 1
  30   15   36 1
  31   16   17 1
  32   18   19 ar
  33   18   23 ar
  34   19   20 ar
  35   19   37 1
  36   20   21 ar
  37   20   38 1
  38   21   22 ar
  39   21   24 1
  40   22   23 ar
  41   22   39 1
  42   23   40 1
  43   25   41 1
  44   25   42 1
  45   25   43 1

#	End of record

