#	Name: ASD01670010
#	Creating user name:	WinNT
#	Creation time:	15. 06. 2019 19:22

#	Modifying user name:	WinNT
#	Modification time:	15. 06. 2019 19:22

#	Program:	/corina/corina34_cracker 3.40 0067  02.08.2006

@<TRIPOS>MOLECULE
ASD01670010
  19   20    0    0    0
SMALL
NO_CHARGES


@<TRIPOS>ATOM
   1 Cl1            2.6714     1.3404    -0.0157 Cl      
   2 C2            -0.0184     1.5028     0.0103 C.ar    
   3 N3            -2.4999     1.6761     0.0230 N.2     
   4 C4             0.0021    -0.0041     0.0020 C.3     
   5 C5             1.1638     2.2010     0.0028 C.ar    
   6 N6            -4.8203     2.1372     0.0555 N.pl3   
   7 C7             1.1639     3.5891     0.0102 C.ar    
   8 C8            -0.0290     4.2770     0.0248 C.ar    
   9 C9            -1.2373     3.5847     0.0327 C.ar    
  10 C10           -3.4893     2.5020     0.0484 C.2     
  11 C11           -1.2523     2.1870     0.0199 C.ar    
  12 S12           -2.9028     4.1593     0.0517 S.3     
  13 H13            0.0168    -0.3729     1.0276 H       
  14 H14           -0.8878    -0.3767    -0.5053 H       
  15 H15            0.8920    -0.3525    -0.5222 H       
  16 H16           -5.0661     1.1989     0.0408 H       
  17 H17           -5.5099     2.8190     0.0752 H       
  18 H18            2.0991     4.1294     0.0049 H       
  19 H19           -0.0275     5.3569     0.0306 H       
@<TRIPOS>BOND
   1    1    5 1
   2    2    4 1
   3    2    5 ar
   4    2   11 ar
   5    3   10 2
   6    3   11 1
   7    4   13 1
   8    4   14 1
   9    4   15 1
  10    5    7 ar
  11    6   10 1
  12    6   16 1
  13    6   17 1
  14    7    8 ar
  15    7   18 1
  16    8    9 ar
  17    8   19 1
  18    9   11 ar
  19    9   12 1
  20   10   12 1

#	End of record

