#	Name: ASD08150159
#	Creating user name:	WinNT
#	Creation time:	15. 06. 2019 21:15

#	Modifying user name:	WinNT
#	Modification time:	15. 06. 2019 21:15

#	Program:	/corina/corina34_cracker 3.40 0067  02.08.2006

@<TRIPOS>MOLECULE
ASD08150159
  74   78    0    0    0
SMALL
NO_CHARGES


@<TRIPOS>ATOM
   1 O1            -0.3024    -0.1423    -2.9542 O.3     
   2 C2             0.0581    -1.4181    -3.1318 C.2     
   3 N3             1.2508    -1.7231    -2.6024 N.am    
   4 C4             1.8120    -0.5200    -1.9690 C.3     
   5 C5             0.7396     0.5587    -2.2156 C.3     
   6 O6            -0.6328    -2.2267    -3.7192 O.2     
   7 C7             2.0122    -0.7458    -0.4691 C.3     
   8 C8             3.5818    -4.3785    -2.0367 C.ar    
   9 N9             2.9998    -3.1892    -1.9996 N.ar    
  10 C10            1.8583    -2.9729    -2.6444 C.ar    
  11 C11            1.2780    -4.0174    -3.3635 C.ar    
  12 C12            1.9176    -5.2445    -3.3771 C.ar    
  13 N13            3.0547    -5.3897    -2.7110 N.ar    
  14 N14            4.7733    -4.5680    -1.3586 N.3     
  15 C15            5.2578    -5.9466    -1.5199 C.3     
  16 C16            6.6038    -6.0955    -0.8058 C.3     
  17 O17            6.4512    -5.7326     0.5691 O.3     
  18 C18            5.9813    -4.3958     0.7629 C.3     
  19 C19            4.6289    -4.2297     0.0648 C.3     
  20 Cl20           1.2385    -6.5787    -4.2558 Cl      
  21 C21            3.1321    -0.1277    -2.6358 C.3     
  22 O22            3.6560     1.0418    -2.0035 O.3     
  23 Si23           5.1182     1.4996    -2.5626 Si      
  24 C24            5.0510     1.6611    -4.4224 C.ar    
  25 C25            5.3513     2.8696    -5.0226 C.ar    
  26 C26            5.3016     2.9892    -6.3988 C.ar    
  27 C27            4.9519     1.9000    -7.1750 C.ar    
  28 C28            4.6525     0.6912    -6.5749 C.ar    
  29 C29            4.7065     0.5706    -5.1989 C.ar    
  30 C30            5.5850     3.1449    -1.8112 C.ar    
  31 C31            5.0959     4.3173    -2.3563 C.ar    
  32 C32            5.4414     5.5348    -1.8002 C.ar    
  33 C33            6.2755     5.5799    -0.6989 C.ar    
  34 C34            6.7638     4.4074    -0.1532 C.ar    
  35 C35            6.4149     3.1897    -0.7066 C.ar    
  36 C36            6.3898     0.2206    -2.0959 C.3     
  37 C37            6.2860    -0.9728    -3.0477 C.3     
  38 C38            7.7887     0.8322    -2.1956 C.3     
  39 C39            6.1391    -0.2480    -0.6612 C.3     
  40 H40            1.1481     1.3743    -2.8123 H       
  41 H41            0.3505     0.9341    -1.2692 H       
  42 H42            2.7078    -1.5708    -0.3155 H       
  43 H43            2.4165     0.1594    -0.0161 H       
  44 H44            1.0549    -0.9870    -0.0071 H       
  45 H45            0.3505    -3.8721    -3.8973 H       
  46 H46            4.5367    -6.6390    -1.0854 H       
  47 H47            5.3818    -6.1671    -2.5801 H       
  48 H48            6.9395    -7.1302    -0.8740 H       
  49 H49            7.3391    -5.4419    -1.2753 H       
  50 H50            5.8667    -4.2013     1.8293 H       
  51 H51            6.6985    -3.6929     0.3391 H       
  52 H52            4.2939    -3.1969     0.1613 H       
  53 H53            3.8978    -4.8946     0.5246 H       
  54 H54            3.8462    -0.9452    -2.5366 H       
  55 H55            2.9588     0.0771    -3.6922 H       
  56 H56            5.6245     3.7205    -4.4161 H       
  57 H57            5.5355     3.9335    -6.8676 H       
  58 H58            4.9123     1.9936    -8.2502 H       
  59 H59            4.3790    -0.1596    -7.1813 H       
  60 H60            4.4761    -0.3748    -4.7303 H       
  61 H61            4.4442     4.2821    -3.2168 H       
  62 H62            5.0598     6.4509    -2.2265 H       
  63 H63            6.5460     6.5312    -0.2649 H       
  64 H64            7.4158     4.4426     0.7071 H       
  65 H65            6.7935     2.2734    -0.2781 H       
  66 H66            6.3715    -0.6251    -4.0771 H       
  67 H67            7.0891    -1.6784    -2.8347 H       
  68 H68            5.3235    -1.4653    -2.9092 H       
  69 H69            7.8997     1.6105    -1.4405 H       
  70 H70            8.5369     0.0568    -2.0308 H       
  71 H71            7.9263     1.2650    -3.1864 H       
  72 H72            5.1820    -0.7671    -0.6105 H       
  73 H73            6.9365    -0.9254    -0.3556 H       
  74 H74            6.1203     0.6147     0.0048 H       
@<TRIPOS>BOND
   1    1    2 1
   2    1    5 1
   3    2    3 am
   4    2    6 2
   5    3    4 1
   6    3   10 1
   7    4    5 1
   8    4    7 1
   9    4   21 1
  10    5   40 1
  11    5   41 1
  12    7   42 1
  13    7   43 1
  14    7   44 1
  15    8    9 ar
  16    8   13 ar
  17    8   14 1
  18    9   10 ar
  19   10   11 ar
  20   11   12 ar
  21   11   45 1
  22   12   13 ar
  23   12   20 1
  24   14   15 1
  25   14   19 1
  26   15   16 1
  27   15   46 1
  28   15   47 1
  29   16   17 1
  30   16   48 1
  31   16   49 1
  32   17   18 1
  33   18   19 1
  34   18   50 1
  35   18   51 1
  36   19   52 1
  37   19   53 1
  38   21   22 1
  39   21   54 1
  40   21   55 1
  41   22   23 1
  42   23   24 1
  43   23   30 1
  44   23   36 1
  45   24   25 ar
  46   24   29 ar
  47   25   26 ar
  48   25   56 1
  49   26   27 ar
  50   26   57 1
  51   27   28 ar
  52   27   58 1
  53   28   29 ar
  54   28   59 1
  55   29   60 1
  56   30   31 ar
  57   30   35 ar
  58   31   32 ar
  59   31   61 1
  60   32   33 ar
  61   32   62 1
  62   33   34 ar
  63   33   63 1
  64   34   35 ar
  65   34   64 1
  66   35   65 1
  67   36   37 1
  68   36   39 1
  69   36   38 1
  70   37   66 1
  71   37   67 1
  72   37   68 1
  73   38   69 1
  74   38   70 1
  75   38   71 1
  76   39   72 1
  77   39   73 1
  78   39   74 1

#	End of record

