#	Name: ASD02039228
#	Creating user name:	WinNT
#	Creation time:	15. 06. 2019 20:17

#	Modifying user name:	WinNT
#	Modification time:	15. 06. 2019 20:17

#	Program:	/corina/corina34_cracker 3.40 0067  02.08.2006

@<TRIPOS>MOLECULE
ASD02039228
  42   45    0    0    0
SMALL
NO_CHARGES


@<TRIPOS>ATOM
   1 N1             0.0027     1.2565     0.3782 N.2     
   2 C2             0.0063    -0.0137     0.0899 C.2     
   3 S3             1.6824    -0.4973    -0.1781 S.3     
   4 C4             2.1782     1.1640     0.1517 C.2     
   5 N5             1.1137     1.8524     0.4083 N.2     
   6 N6            -1.1069    -0.8382     0.0088 N.pl3   
   7 C7            -2.3889    -0.2952     0.1297 C.ar    
   8 C8            -2.6308     1.0139    -0.2674 C.ar    
   9 C9            -3.8989     1.5472    -0.1470 C.ar    
  10 C10           -4.9273     0.7798     0.3687 C.ar    
  11 C11           -4.6900    -0.5237     0.7650 C.ar    
  12 C12           -3.4256    -1.0651     0.6420 C.ar    
  13 C13            3.5912     1.6877     0.1369 C.3     
  14 O14            4.1614     1.5566     1.4406 O.3     
  15 C15            5.4416     1.9858     1.6004 C.ar    
  16 C16            6.1325     2.5232     0.5173 C.ar    
  17 C17            7.4299     2.9636     0.6607 C.ar    
  18 C18            8.0615     2.8733     1.8964 C.ar    
  19 C19            7.3668     2.3308     2.9940 C.ar    
  20 C20            6.0482     1.8920     2.8371 C.ar    
  21 N21            9.3612     3.3080     2.0603 N.am    
  22 C22            9.9743     3.2210     3.2536 C.2     
  23 C23            9.3219     2.6849     4.3843 C.2     
  24 C24            8.0443     2.2409     4.2889 C.2     
  25 O25           11.1229     3.6148     3.3615 O.2     
  26 C26           -6.3097     1.3655     0.4995 C.3     
  27 F27           -7.0313     1.1245    -0.6745 F       
  28 F28           -6.9675     0.7710     1.5816 F       
  29 F29           -6.2135     2.7448     0.7129 F       
  30 H30           -0.9953    -1.7914    -0.1318 H       
  31 H31           -1.8279     1.6140    -0.6696 H       
  32 H32           -4.0877     2.5648    -0.4556 H       
  33 H33           -5.4954    -1.1201     1.1677 H       
  34 H34           -3.2409    -2.0831     0.9517 H       
  35 H35            4.1832     1.1159    -0.5777 H       
  36 H36            3.5863     2.7383    -0.1536 H       
  37 H37            5.6466     2.5952    -0.4445 H       
  38 H38            7.9564     3.3783    -0.1861 H       
  39 H39            5.5106     1.4753     3.6760 H       
  40 H40            9.8393     3.6814     1.3034 H       
  41 H41            9.8420     2.6284     5.3291 H       
  42 H42            7.5373     1.8298     5.1494 H       
@<TRIPOS>BOND
   1    1    2 2
   2    1    5 1
   3    2    3 1
   4    2    6 1
   5    3    4 1
   6    4    5 2
   7    4   13 1
   8    6    7 1
   9    6   30 1
  10    7    8 ar
  11    7   12 ar
  12    8    9 ar
  13    8   31 1
  14    9   10 ar
  15    9   32 1
  16   10   11 ar
  17   10   26 1
  18   11   12 ar
  19   11   33 1
  20   12   34 1
  21   13   14 1
  22   13   35 1
  23   13   36 1
  24   14   15 1
  25   15   16 ar
  26   15   20 ar
  27   16   17 ar
  28   16   37 1
  29   17   18 ar
  30   17   38 1
  31   18   19 ar
  32   18   21 1
  33   19   20 ar
  34   19   24 1
  35   20   39 1
  36   21   22 am
  37   21   40 1
  38   22   23 1
  39   22   25 2
  40   23   24 2
  41   23   41 1
  42   24   42 1
  43   26   27 1
  44   26   28 1
  45   26   29 1

#	End of record

