#	Name: ASD04882278
#	Creating user name:	WinNT
#	Creation time:	15. 06. 2019 20:54

#	Modifying user name:	WinNT
#	Modification time:	15. 06. 2019 20:54

#	Program:	/corina/corina34_cracker 3.40 0067  02.08.2006

@<TRIPOS>MOLECULE
ASD04882278
  85   89    0    0    0
SMALL
NO_CHARGES


@<TRIPOS>ATOM
   1 N1            -0.1278     1.5428    -0.0407 N.am    
   2 C2            -0.0655     0.1430    -0.0436 C.ar    
   3 C3            -1.2401    -0.6096     0.0409 C.ar    
   4 C4            -1.1797    -1.9985     0.0386 C.ar    
   5 C5             0.0372    -2.6378    -0.0469 C.ar    
   6 C6             1.2157    -1.8912    -0.1316 C.ar    
   7 C7             1.1573    -0.4947    -0.1357 C.ar    
   8 N8            -2.4726     0.0326     0.1279 N.3     
   9 C9            -2.5961     0.7649     1.3947 C.3     
  10 C10           -3.5761    -0.9209    -0.0440 C.3     
  11 C11           -4.9048    -0.1628    -0.0882 C.3     
  12 C12           -5.0823     0.6225     1.2143 C.3     
  13 C13           -3.8955     1.5734     1.3935 C.3     
  14 C14            2.5192    -2.5762    -0.2222 C.2     
  15 O15            3.5440    -1.9259    -0.2959 O.2     
  16 N16           -6.3248     1.3963     1.1539 N.am    
  17 C17            0.8553     2.2599     0.5388 C.2     
  18 C18            0.8551     3.7301     0.4337 C.2     
  19 O19            1.7426     1.6939     1.1484 O.2     
  20 C20            1.7774     4.5788     0.9642 C.2     
  21 N21           -0.0640     4.4940    -0.2170 N.2     
  22 C22            0.2725     5.7424    -0.0879 C.2     
  23 O23            1.3996     5.8240     0.6331 O.3     
  24 N24            2.5741    -3.9229    -0.2233 N.am    
  25 C25            3.8684    -4.6031    -0.3133 C.3     
  26 C26            3.6511    -6.1175    -0.2948 C.3     
  27 N27            4.7948    -8.2779    -0.3711 N.am    
  28 C28            5.0029    -6.8279    -0.3888 C.3     
  29 C29           -0.4830     6.9134    -0.6615 C.3     
  30 C30            4.5918    -9.1001    -1.5698 C.3     
  31 C31            4.7709    -9.0272     0.7446 C.2     
  32 C32            4.5245   -10.4776     0.3922 C.3     
  33 C33            3.9942   -10.4305    -1.0608 C.3     
  34 O34            4.9251    -8.6023     1.8701 O.2     
  35 C35           -1.0185     7.9578     0.3201 C.3     
  36 C36            0.1771     8.2909    -0.5746 C.3     
  37 C37           -6.9545     1.7497     2.2919 C.2     
  38 O38           -8.0964     2.4608     2.2365 O.3     
  39 O39           -6.4916     1.4265     3.3680 O.2     
  40 C40           -8.7199     2.8062     3.5015 C.3     
  41 C41           -7.7513     3.6481     4.3345 C.3     
  42 C42           -9.9964     3.6078     3.2388 C.3     
  43 C43           -9.0691     1.5266     4.2641 C.3     
  44 H44           -0.8765     1.9958    -0.4592 H       
  45 H45           -2.0890    -2.5775     0.1043 H       
  46 H46            0.0808    -3.7169    -0.0481 H       
  47 H47            2.0662     0.0848    -0.2014 H       
  48 H48           -2.6094     0.0572     2.2236 H       
  49 H49           -1.7482     1.4405     1.5078 H       
  50 H50           -3.4400    -1.4697    -0.9759 H       
  51 H51           -3.5849    -1.6207     0.7916 H       
  52 H52           -4.9021     0.5274    -0.9318 H       
  53 H53           -5.7249    -0.8720    -0.2001 H       
  54 H54           -5.1240    -0.0704     2.0546 H       
  55 H55           -3.9945     2.1045     2.3402 H       
  56 H56           -3.8770     2.2909     0.5732 H       
  57 H57           -6.6943     1.6543     0.2950 H       
  58 H58            2.6476     4.3032     1.5415 H       
  59 H59            1.7566    -4.4416    -0.1645 H       
  60 H60            4.3647    -4.3186    -1.2411 H       
  61 H61            4.4901    -4.3149     0.5344 H       
  62 H62            3.1548    -6.4020     0.6330 H       
  63 H63            3.0295    -6.4057    -1.1426 H       
  64 H64            5.4992    -6.5434    -1.3166 H       
  65 H65            5.6245    -6.5397     0.4589 H       
  66 H66           -1.0843     6.6978    -1.5447 H       
  67 H67            3.8955    -8.6096    -2.2501 H       
  68 H68            5.5438    -9.2807    -2.0690 H       
  69 H69            5.4543   -11.0446     0.4380 H       
  70 H70            3.7791   -10.9109     1.0591 H       
  71 H71            2.9047   -10.4008    -1.0776 H       
  72 H72            4.3689   -11.2742    -1.6403 H       
  73 H73           -1.9719     8.4296     0.0824 H       
  74 H74           -0.8244     7.7979     1.3806 H       
  75 H75            1.1578     8.3502    -0.1027 H       
  76 H76            0.0102     8.9819    -1.4009 H       
  77 H77           -7.5026     4.5598     3.7912 H       
  78 H78           -8.2194     3.9074     5.2841 H       
  79 H79           -6.8420     3.0771     4.5216 H       
  80 H80          -10.6865     3.0080     2.6454 H       
  81 H81          -10.4645     3.8671     4.1885 H       
  82 H82           -9.7476     4.5194     2.6955 H       
  83 H83           -8.1598     0.9555     4.4513 H       
  84 H84           -9.5372     1.7859     5.2137 H       
  85 H85           -9.7592     0.9268     3.6707 H       
@<TRIPOS>BOND
   1    1    2 1
   2    1   17 am
   3    1   44 1
   4    2    3 ar
   5    2    7 ar
   6    3    4 ar
   7    3    8 1
   8    4    5 ar
   9    4   45 1
  10    5    6 ar
  11    5   46 1
  12    6    7 ar
  13    6   14 1
  14    7   47 1
  15    8    9 1
  16    8   10 1
  17    9   13 1
  18    9   48 1
  19    9   49 1
  20   10   11 1
  21   10   50 1
  22   10   51 1
  23   11   12 1
  24   11   52 1
  25   11   53 1
  26   12   13 1
  27   12   16 1
  28   12   54 1
  29   13   55 1
  30   13   56 1
  31   14   15 2
  32   14   24 am
  33   16   37 am
  34   16   57 1
  35   17   19 2
  36   17   18 1
  37   18   20 2
  38   18   21 1
  39   20   23 1
  40   20   58 1
  41   21   22 2
  42   22   23 1
  43   22   29 1
  44   24   25 1
  45   24   59 1
  46   25   26 1
  47   25   60 1
  48   25   61 1
  49   26   28 1
  50   26   62 1
  51   26   63 1
  52   27   28 1
  53   27   30 1
  54   27   31 am
  55   28   64 1
  56   28   65 1
  57   29   35 1
  58   29   36 1
  59   29   66 1
  60   30   33 1
  61   30   67 1
  62   30   68 1
  63   31   32 1
  64   31   34 2
  65   32   33 1
  66   32   69 1
  67   32   70 1
  68   33   71 1
  69   33   72 1
  70   35   36 1
  71   35   73 1
  72   35   74 1
  73   36   75 1
  74   36   76 1
  75   37   38 1
  76   37   39 2
  77   38   40 1
  78   40   41 1
  79   40   42 1
  80   40   43 1
  81   41   77 1
  82   41   78 1
  83   41   79 1
  84   42   80 1
  85   42   81 1
  86   42   82 1
  87   43   83 1
  88   43   84 1
  89   43   85 1

#	End of record

