#	Name: ASD01410546
#	Creating user name:	WinNT
#	Creation time:	15. 06. 2019 19:18

#	Modifying user name:	WinNT
#	Modification time:	15. 06. 2019 19:18

#	Program:	/corina/corina34_cracker 3.40 0067  02.08.2006

@<TRIPOS>MOLECULE
ASD01410546
  80   82    0    0    0
SMALL
NO_CHARGES


@<TRIPOS>ATOM
   1 C1            -0.4232     1.3639    -1.3280 C.ar    
   2 C2             0.2944     1.5929    -2.4937 C.ar    
   3 C3             1.6297     1.2443    -2.5447 C.ar    
   4 N4             2.2264     0.6989    -1.5021 N.ar    
   5 C5             1.5762     0.4651    -0.3739 C.ar    
   6 C6             0.2314     0.7903    -0.2517 C.ar    
   7 O7             2.2292    -0.0976     0.6737 O.3     
   8 C8             3.5201    -0.4828     0.4888 C.ar    
   9 C9             4.5190     0.4763     0.3719 C.ar    
  10 C10            5.8325     0.0963     0.1840 C.ar    
  11 C11            6.1649    -1.2492     0.1101 C.ar    
  12 C12            5.1610    -2.2225     0.2274 C.ar    
  13 C13            3.8354    -1.8278     0.4235 C.ar    
  14 N14            7.4916    -1.6324    -0.0806 N.am    
  15 C15            7.9823    -1.7639    -1.3290 C.2     
  16 C16            8.3525    -1.8920     1.0760 C.3     
  17 O17            9.1012    -2.2004    -1.4979 O.2     
  18 C18            7.1407    -1.3685    -2.5149 C.3     
  19 C19            7.4947    -2.2559    -3.7100 C.3     
  20 C20            6.6402    -1.8546    -4.9140 C.3     
  21 C21            6.9123    -0.3910    -5.2673 C.3     
  22 C22            6.5584     0.4964    -4.0722 C.3     
  23 C23            7.4128     0.0950    -2.8682 C.3     
  24 C24            6.0579     0.0104    -6.4713 C.3     
  25 C25            9.4912    -0.8706     1.1037 C.3     
  26 O26            8.9527     0.4379     1.3038 O.3     
  27 C27            9.9381     1.4719     1.3457 C.3     
  28 C28            7.5301    -1.7740     2.3607 C.3     
  29 O29            7.0951    -0.4228     2.5253 O.3     
  30 C30            6.3143    -0.2028     3.7018 C.3     
  31 C31            9.2518     2.8220     1.5629 C.3     
  32 C32            5.9059     1.2699     3.7748 C.3     
  33 C33            5.0700     1.5055     5.0344 C.3     
  34 C34           10.3069     3.9291     1.6077 C.3     
  35 C35           -0.5052     0.5221     1.0353 C.3     
  36 F36           -1.8355     0.9352     0.9061 F       
  37 F37           -0.4676    -0.8476     1.3175 F       
  38 F38            0.1037     1.2298     2.0773 F       
  39 C39            5.5040    -3.6539     0.1497 C.2     
  40 O40            6.6672    -3.9965     0.0723 O.2     
  41 O41            4.5276    -4.5825     0.1646 O.3     
  42 H42           -1.4674     1.6313    -1.2607 H       
  43 H43           -0.1864     2.0386    -3.3520 H       
  44 H44            2.1925     1.4200    -3.4495 H       
  45 H45            4.2661     1.5248     0.4279 H       
  46 H46            6.6032     0.8475     0.0940 H       
  47 H47            3.0572    -2.5711     0.5147 H       
  48 H48            8.7678    -2.8971     1.0015 H       
  49 H49            6.0860    -1.4931    -2.2697 H       
  50 H50            8.5494    -2.1314    -3.9552 H       
  51 H51            7.3008    -3.2986    -3.4583 H       
  52 H52            6.8924    -2.4868    -5.7654 H       
  53 H53            5.5855    -1.9791    -4.6688 H       
  54 H54            7.9670    -0.2664    -5.5125 H       
  55 H55            6.7522     1.5391    -4.3239 H       
  56 H56            5.5036     0.3719    -3.8270 H       
  57 H57            7.1606     0.7272    -2.0168 H       
  58 H58            8.4675     0.2196    -3.1134 H       
  59 H59            5.0032    -0.1142    -6.2261 H       
  60 H60            6.2517     1.0531    -6.7230 H       
  61 H61            6.3101    -0.6218    -7.3227 H       
  62 H62           10.1748    -1.1105     1.9181 H       
  63 H63           10.0297    -0.9009     0.1565 H       
  64 H64           10.6310     1.2805     2.1651 H       
  65 H65           10.4858     1.4902     0.4035 H       
  66 H66            6.6619    -2.4301     2.2979 H       
  67 H67            8.1441    -2.0644     3.2132 H       
  68 H68            5.4209    -0.8263     3.6668 H       
  69 H69            6.9031    -0.4606     4.5821 H       
  70 H70            8.5589     3.0133     0.7435 H       
  71 H71            8.7040     2.8037     2.5051 H       
  72 H72            6.7993     1.8934     3.8098 H       
  73 H73            5.3171     1.5278     2.8945 H       
  74 H74            4.7790     2.5546     5.0865 H       
  75 H75            4.1766     0.8820     4.9994 H       
  76 H76            5.6588     1.2476     5.9147 H       
  77 H77           10.9997     3.7377     2.4271 H       
  78 H78           10.8546     3.9473     0.6655 H       
  79 H79            9.8179     4.8909     1.7625 H       
  80 H80            4.8015    -5.5084     0.1115 H       
@<TRIPOS>BOND
   1    1    2 ar
   2    1    6 ar
   3    1   42 1
   4    2    3 ar
   5    2   43 1
   6    3    4 ar
   7    3   44 1
   8    4    5 ar
   9    5    6 ar
  10    5    7 1
  11    6   35 1
  12    7    8 1
  13    8    9 ar
  14    8   13 ar
  15    9   10 ar
  16    9   45 1
  17   10   11 ar
  18   10   46 1
  19   11   12 ar
  20   11   14 1
  21   12   13 ar
  22   12   39 1
  23   13   47 1
  24   14   15 am
  25   14   16 1
  26   15   17 2
  27   15   18 1
  28   16   25 1
  29   16   28 1
  30   16   48 1
  31   18   19 1
  32   18   23 1
  33   18   49 1
  34   19   20 1
  35   19   50 1
  36   19   51 1
  37   20   21 1
  38   20   52 1
  39   20   53 1
  40   21   22 1
  41   21   24 1
  42   21   54 1
  43   22   23 1
  44   22   55 1
  45   22   56 1
  46   23   57 1
  47   23   58 1
  48   24   59 1
  49   24   60 1
  50   24   61 1
  51   25   26 1
  52   25   62 1
  53   25   63 1
  54   26   27 1
  55   27   31 1
  56   27   64 1
  57   27   65 1
  58   28   29 1
  59   28   66 1
  60   28   67 1
  61   29   30 1
  62   30   32 1
  63   30   68 1
  64   30   69 1
  65   31   34 1
  66   31   70 1
  67   31   71 1
  68   32   33 1
  69   32   72 1
  70   32   73 1
  71   33   74 1
  72   33   75 1
  73   33   76 1
  74   34   77 1
  75   34   78 1
  76   34   79 1
  77   35   36 1
  78   35   37 1
  79   35   38 1
  80   39   40 2
  81   39   41 1
  82   41   80 1

#	End of record

