#	Name: ASD03540526
#	Creating user name:	WinNT
#	Creation time:	15. 06. 2019 20:43

#	Modifying user name:	WinNT
#	Modification time:	15. 06. 2019 20:43

#	Program:	/corina/corina34_cracker 3.40 0067  02.08.2006

@<TRIPOS>MOLECULE
ASD03540526
  52   55    0    0    0
SMALL
NO_CHARGES


@<TRIPOS>ATOM
   1 N1            -0.0161     1.3395     0.0094 N.am    
   2 C2             0.0021    -0.0041     0.0020 C.2     
   3 N3             1.1388    -0.7175    -0.0127 N.am    
   4 C4             2.3458    -0.1110    -0.0206 C.2     
   5 C5             2.3855     1.3632    -0.0131 C.ar    
   6 C6             3.5861     2.0598    -0.0208 C.ar    
   7 C7             3.5646     3.4571    -0.0136 C.ar    
   8 C8             2.3392     4.1404     0.0018 C.ar    
   9 C9             1.1598     3.4526     0.0099 C.ar    
  10 C10            1.1627     2.0627     0.0020 C.ar    
  11 O11           -1.0577    -0.5996     0.0094 O.2     
  12 O12            3.3720    -0.7630    -0.0331 O.2     
  13 C13            4.8256     4.2109    -0.0217 C.2     
  14 O14            5.8850     3.6204    -0.0346 O.2     
  15 C15            4.8028     5.7177    -0.0139 C.3     
  16 C16            6.2374     6.2495    -0.0247 C.3     
  17 C17            6.2146     7.7563    -0.0169 C.ar    
  18 C18            6.2154     8.4414     1.1837 C.ar    
  19 C19            6.1944     9.8236     1.1909 C.ar    
  20 C20            6.1731    10.5207    -0.0026 C.ar    
  21 C21            6.1732     9.8356    -1.2033 C.ar    
  22 C22            6.1986     8.4535    -1.2105 C.ar    
  23 C23           -1.2993     2.0463     0.0193 C.3     
  24 C24            1.0693    -2.1808    -0.0199 C.3     
  25 C25            1.0318    -2.6750    -1.4431 C.ar    
  26 C26            2.2104    -2.9583    -2.1076 C.ar    
  27 C27            2.1761    -3.4116    -3.4131 C.ar    
  28 C28            0.9631    -3.5818    -4.0539 C.ar    
  29 C29           -0.2155    -3.2993    -3.3891 C.ar    
  30 C30           -0.1813    -2.8503    -2.0822 C.ar    
  31 H31            4.5260     1.5280    -0.0320 H       
  32 H32            2.3288     5.2203     0.0077 H       
  33 H33            0.2228     3.9896     0.0221 H       
  34 H34            4.2752     6.0776    -0.8972 H       
  35 H35            4.2919     6.0687     0.8827 H       
  36 H36            6.7650     5.8895     0.8586 H       
  37 H37            6.7483     5.8985    -0.9213 H       
  38 H38            6.2320     7.8968     2.1162 H       
  39 H39            6.1943    10.3588     2.1289 H       
  40 H40            6.1560    11.6005     0.0030 H       
  41 H41            6.1563    10.3802    -2.1358 H       
  42 H42            6.2024     7.9183    -2.1485 H       
  43 H43           -2.1134     1.3214     0.0192 H       
  44 H44           -1.3655     2.6668     0.9130 H       
  45 H45           -1.3739     2.6765    -0.8669 H       
  46 H46            1.9459    -2.5887     0.4834 H       
  47 H47            0.1680    -2.5043     0.5009 H       
  48 H48            3.1580    -2.8253    -1.6069 H       
  49 H49            3.0969    -3.6323    -3.9325 H       
  50 H50            0.9363    -3.9352    -5.0741 H       
  51 H51           -1.1631    -3.4321    -3.8899 H       
  52 H52           -1.1023    -2.6331    -1.5616 H       
@<TRIPOS>BOND
   1    1    2 am
   2    1   10 1
   3    1   23 1
   4    2    3 am
   5    2   11 2
   6    3    4 am
   7    3   24 1
   8    4    5 1
   9    4   12 2
  10    5    6 ar
  11    5   10 ar
  12    6    7 ar
  13    6   31 1
  14    7    8 ar
  15    7   13 1
  16    8    9 ar
  17    8   32 1
  18    9   10 ar
  19    9   33 1
  20   13   14 2
  21   13   15 1
  22   15   16 1
  23   15   34 1
  24   15   35 1
  25   16   17 1
  26   16   36 1
  27   16   37 1
  28   17   18 ar
  29   17   22 ar
  30   18   19 ar
  31   18   38 1
  32   19   20 ar
  33   19   39 1
  34   20   21 ar
  35   20   40 1
  36   21   22 ar
  37   21   41 1
  38   22   42 1
  39   23   43 1
  40   23   44 1
  41   23   45 1
  42   24   25 1
  43   24   46 1
  44   24   47 1
  45   25   26 ar
  46   25   30 ar
  47   26   27 ar
  48   26   48 1
  49   27   28 ar
  50   27   49 1
  51   28   29 ar
  52   28   50 1
  53   29   30 ar
  54   29   51 1
  55   30   52 1

#	End of record

