#	Name: ASD04590260
#	Creating user name:	WinNT
#	Creation time:	15. 06. 2019 20:50

#	Modifying user name:	WinNT
#	Modification time:	15. 06. 2019 20:50

#	Program:	/corina/corina34_cracker 3.40 0067  02.08.2006

@<TRIPOS>MOLECULE
ASD04590260
  40   44    0    0    0
SMALL
NO_CHARGES


@<TRIPOS>ATOM
   1 C1            -0.0157     1.3062     0.0092 C.2     
   2 N2             0.0021    -0.0041     0.0020 N.2     
   3 N3             1.2750     1.7874    -0.0005 N.am    
   4 C4             2.1168     0.6849    -0.0145 C.ar    
   5 C5             1.2840    -0.4465    -0.0126 C.ar    
   6 C6             3.4948     0.5309    -0.0289 C.ar    
   7 C7             4.0442    -0.7344    -0.0413 C.ar    
   8 C8             3.2270    -1.8556    -0.0400 C.ar    
   9 C9             1.8574    -1.7222    -0.0256 C.ar    
  10 C10            3.8441    -3.2305    -0.0547 C.3     
  11 N11            4.0585    -3.6857     1.3254 N.3     
  12 C12            4.4353    -5.1064     1.3590 C.3     
  13 C13            4.7067    -5.5227     2.8070 C.3     
  14 O14            3.5486    -5.2507     3.6010 O.3     
  15 C15            3.1540    -3.8761     3.5915 C.3     
  16 C16            2.8668    -3.4431     2.1514 C.3     
  17 C17           -1.1271     2.2799     0.0195 C.2     
  18 C18           -0.8017     3.6605     0.0246 C.2     
  19 N19            0.5479     4.0329     0.0197 N.am    
  20 C20            1.5208     3.1078     0.0042 C.2     
  21 N21           -2.4362     2.1685     0.0251 N.2     
  22 N22           -2.9846     3.4588     0.0338 N.pl3   
  23 C23           -1.9625     4.3548     0.0333 C.2     
  24 O24            2.6773     3.4824     0.0010 O.2     
  25 H25            4.1365     1.3996    -0.0307 H       
  26 H26            5.1176    -0.8530    -0.0525 H       
  27 H27            1.2275    -2.5994    -0.0246 H       
  28 H28            3.1757    -3.9232    -0.5661 H       
  29 H29            4.7995    -3.1943    -0.5780 H       
  30 H30            3.6220    -5.7083     0.9535 H       
  31 H31            5.3343    -5.2587     0.7618 H       
  32 H32            4.9307    -6.5888     2.8433 H       
  33 H33            5.5547    -4.9585     3.1951 H       
  34 H34            2.2550    -3.7514     4.1952 H       
  35 H35            3.9569    -3.2641     4.0024 H       
  36 H36            2.6210    -2.3814     2.1327 H       
  37 H37            2.0285    -4.0185     1.7586 H       
  38 H38            0.7837     4.9738     0.0231 H       
  39 H39           -3.9302     3.6747     0.0390 H       
  40 H40           -2.0599     5.4304     0.0395 H       
@<TRIPOS>BOND
   1    1    2 2
   2    1    3 1
   3    1   17 1
   4    2    5 1
   5    3    4 1
   6    3   20 am
   7    4    5 ar
   8    4    6 ar
   9    5    9 ar
  10    6    7 ar
  11    6   25 1
  12    7    8 ar
  13    7   26 1
  14    8    9 ar
  15    8   10 1
  16    9   27 1
  17   10   11 1
  18   10   28 1
  19   10   29 1
  20   11   12 1
  21   11   16 1
  22   12   13 1
  23   12   30 1
  24   12   31 1
  25   13   14 1
  26   13   32 1
  27   13   33 1
  28   14   15 1
  29   15   16 1
  30   15   34 1
  31   15   35 1
  32   16   36 1
  33   16   37 1
  34   17   18 1
  35   17   21 2
  36   18   19 1
  37   18   23 2
  38   19   20 am
  39   19   38 1
  40   20   24 2
  41   21   22 1
  42   22   23 1
  43   22   39 1
  44   23   40 1

#	End of record

