#	Name: ASD05720280
#	Creating user name:	WinNT
#	Creation time:	15. 06. 2019 21:02

#	Modifying user name:	WinNT
#	Modification time:	15. 06. 2019 21:02

#	Program:	/corina/corina34_cracker 3.40 0067  02.08.2006

@<TRIPOS>MOLECULE
ASD05720280
 102  107    0    0    0
SMALL
NO_CHARGES


@<TRIPOS>ATOM
   1 N1            -0.9008     2.2969    -2.4356 N.am    
   2 C2            -0.5935     1.0103    -1.7911 C.3     
   3 C3             0.3612     0.2293    -2.7013 C.3     
   4 O4             1.4791     1.0570    -3.0315 O.3     
   5 C5             1.1386     2.2341    -3.7680 C.3     
   6 C6             0.2237     3.1177    -2.9123 C.3     
   7 C7            -2.1747     2.7089    -2.5898 C.2     
   8 O8            -3.0900     2.0145    -2.1940 O.2     
   9 O9            -2.4333     3.8898    -3.1825 O.3     
  10 C10            0.8507    -1.0241    -1.9732 C.3     
  11 C11            3.0906    -1.6017    -2.9026 C.2     
  12 N12            3.7015    -2.4074    -3.7811 N.am    
  13 C13            2.6969    -3.2591    -4.4353 C.3     
  14 C14            1.3667    -2.8215    -3.7921 C.3     
  15 N15            1.7630    -1.7697    -2.8438 N.am    
  16 C16            6.8509    -3.2056    -5.2802 C.2     
  17 N17            5.5397    -3.1681    -5.0234 N.2     
  18 C18            5.0666    -2.4342    -4.0339 C.2     
  19 C19            5.9463    -1.6770    -3.2338 C.2     
  20 C20            7.2735    -1.7122    -3.4910 C.2     
  21 N21            7.7338    -2.4823    -4.5227 N.pl3   
  22 N22            9.0207    -2.7170    -5.0199 N.2     
  23 C23            8.9486    -3.5430    -6.0346 C.2     
  24 C24            7.6076    -3.8889    -6.2415 C.2     
  25 C25            7.0868    -4.8038    -7.2818 C.ar    
  26 C26            7.4704    -4.6375    -8.6138 C.ar    
  27 C27            6.9854    -5.4891    -9.5811 C.ar    
  28 C28            6.1107    -6.5174    -9.2305 C.ar    
  29 C29            5.7270    -6.6841    -7.8999 C.ar    
  30 C30            6.2161    -5.8371    -6.9306 C.ar    
  31 N31            4.5301    -9.0306   -11.3194 N.pl3   
  32 N32            4.7612    -8.4360   -10.0683 N.2     
  33 C33            5.5880    -7.4336   -10.2730 C.2     
  34 N34            5.8792    -7.3772   -11.5799 N.2     
  35 C35            5.2497    -8.3305   -12.2146 C.2     
  36 C36            3.6777   -10.1898   -11.5947 C.3     
  37 O37            3.7095   -10.4832   -12.9929 O.3     
  38 C38            2.9064   -11.6034   -13.3701 C.3     
  39 C39            3.0159   -11.8240   -14.8802 C.3     
  40 Si40           1.9689   -13.2844   -15.3720 Si      
  41 C41            0.1920   -12.9549   -14.9197 C.3     
  42 C42            2.1022   -13.5529   -17.2107 C.3     
  43 C43            2.5657   -14.8056   -14.4774 C.3     
  44 O44            3.6876    -0.7946    -2.2170 O.2     
  45 C45            2.9736    -4.7356    -4.1451 C.3     
  46 C46            4.2941    -5.1454    -4.8004 C.3     
  47 C47            3.0668    -4.9495    -2.6330 C.3     
  48 C48           -3.8285     4.2695    -3.3148 C.3     
  49 C49           -4.4669     4.3574    -1.9272 C.3     
  50 C50           -3.9232     5.6307    -4.0069 C.3     
  51 C51           -4.5655     3.2204    -4.1498 C.3     
  52 H52           -0.1183     1.1873    -0.8262 H       
  53 H53           -1.5127     0.4419    -1.6493 H       
  54 H54           -0.1603    -0.0592    -3.6139 H       
  55 H55            2.0467     2.7834    -4.0166 H       
  56 H56            0.6199     1.9528    -4.6844 H       
  57 H57           -0.1543     3.9449    -3.5131 H       
  58 H58            0.7812     3.5069    -2.0604 H       
  59 H59            1.3740    -0.7340    -1.0620 H       
  60 H60           -0.0025    -1.6524    -1.7177 H       
  61 H61            2.6810    -3.0757    -5.5096 H       
  62 H62            0.6902    -2.4208    -4.5471 H       
  63 H63            0.9033    -3.6561    -3.2660 H       
  64 H64            5.5639    -1.0742    -2.4233 H       
  65 H65            7.9620    -1.1382    -2.8886 H       
  66 H66            9.7867    -3.9015    -6.6138 H       
  67 H67            8.1472    -3.8409    -8.8855 H       
  68 H68            7.2821    -5.3605   -10.6116 H       
  69 H69            5.0494    -7.4803    -7.6291 H       
  70 H70            5.9224    -5.9691    -5.8998 H       
  71 H71            5.2989    -8.5231   -13.2762 H       
  72 H72            4.0428   -11.0506   -11.0344 H       
  73 H73            2.6540    -9.9678   -11.2932 H       
  74 H74            3.2556   -12.4935   -12.8467 H       
  75 H75            1.8667   -11.4107   -13.1055 H       
  76 H76            2.6668   -10.9339   -15.4036 H       
  77 H77            4.0556   -12.0167   -15.1448 H       
  78 H78           -0.1572   -12.0649   -15.4432 H       
  79 H79           -0.4206   -13.8094   -15.2075 H       
  80 H80            0.1140   -12.7978   -13.8439 H       
  81 H81            3.1419   -13.7456   -17.4753 H       
  82 H82            1.4897   -14.4073   -17.4985 H       
  83 H83            1.7531   -12.6628   -17.7342 H       
  84 H84            2.4877   -14.6485   -13.4016 H       
  85 H85            1.9532   -15.6601   -14.7651 H       
  86 H86            3.6054   -14.9984   -14.7420 H       
  87 H87            2.1637    -5.3432    -4.5488 H       
  88 H88            5.1251    -4.7050    -4.2496 H       
  89 H89            4.3845    -6.2316    -4.7873 H       
  90 H90            4.3133    -4.7916    -5.8312 H       
  91 H91            3.8767    -4.3419    -2.2293 H       
  92 H92            2.1261    -4.6575    -2.1661 H       
  93 H93            3.2639    -6.0014    -2.4263 H       
  94 H94           -3.9419     5.1048    -1.3323 H       
  95 H95           -5.5143     4.6424    -2.0265 H       
  96 H96           -4.3995     3.3877    -1.4341 H       
  97 H97           -3.4684     5.5681    -4.9955 H       
  98 H98           -4.9706     5.9157    -4.1063 H       
  99 H99           -3.3981     6.3781    -3.4121 H       
 100 H100          -4.4981     2.2507    -3.6567 H       
 101 H101          -5.6129     3.5055    -4.2491 H       
 102 H102          -4.1107     3.1578    -5.1384 H       
@<TRIPOS>BOND
   1    1    2 1
   2    1    6 1
   3    1    7 am
   4    2    3 1
   5    2   52 1
   6    2   53 1
   7    3    4 1
   8    3   10 1
   9    3   54 1
  10    4    5 1
  11    5    6 1
  12    5   55 1
  13    5   56 1
  14    6   57 1
  15    6   58 1
  16    7    8 2
  17    7    9 1
  18    9   48 1
  19   10   15 1
  20   10   59 1
  21   10   60 1
  22   11   12 am
  23   11   15 am
  24   11   44 2
  25   12   13 1
  26   12   18 1
  27   13   14 1
  28   13   45 1
  29   13   61 1
  30   14   15 1
  31   14   62 1
  32   14   63 1
  33   16   17 1
  34   16   21 1
  35   16   24 2
  36   17   18 2
  37   18   19 1
  38   19   20 2
  39   19   64 1
  40   20   21 1
  41   20   65 1
  42   21   22 1
  43   22   23 2
  44   23   24 1
  45   23   66 1
  46   24   25 1
  47   25   26 ar
  48   25   30 ar
  49   26   27 ar
  50   26   67 1
  51   27   28 ar
  52   27   68 1
  53   28   29 ar
  54   28   33 1
  55   29   30 ar
  56   29   69 1
  57   30   70 1
  58   31   32 1
  59   31   35 1
  60   31   36 1
  61   32   33 2
  62   33   34 1
  63   34   35 2
  64   35   71 1
  65   36   37 1
  66   36   72 1
  67   36   73 1
  68   37   38 1
  69   38   39 1
  70   38   74 1
  71   38   75 1
  72   39   40 1
  73   39   76 1
  74   39   77 1
  75   40   41 1
  76   40   42 1
  77   40   43 1
  78   41   78 1
  79   41   79 1
  80   41   80 1
  81   42   81 1
  82   42   82 1
  83   42   83 1
  84   43   84 1
  85   43   85 1
  86   43   86 1
  87   45   46 1
  88   45   47 1
  89   45   87 1
  90   46   88 1
  91   46   89 1
  92   46   90 1
  93   47   91 1
  94   47   92 1
  95   47   93 1
  96   48   49 1
  97   48   51 1
  98   48   50 1
  99   49   94 1
 100   49   95 1
 101   49   96 1
 102   50   97 1
 103   50   98 1
 104   50   99 1
 105   51  100 1
 106   51  101 1
 107   51  102 1

#	End of record

