#	Name: ASD01915219
#	Creating user name:	WinNT
#	Creation time:	15. 06. 2019 20:05

#	Modifying user name:	WinNT
#	Modification time:	15. 06. 2019 20:05

#	Program:	/corina/corina34_cracker 3.40 0067  02.08.2006

@<TRIPOS>MOLECULE
ASD01915219
  35   36    0    0    0
SMALL
NO_CHARGES


@<TRIPOS>ATOM
   1 C1            -0.0169     1.3923     0.0097 C.ar    
   2 C2             0.0021    -0.0041     0.0020 C.ar    
   3 C3            -1.1847    -0.7146     0.0090 C.ar    
   4 C4            -2.3958    -0.0477     0.0241 C.ar    
   5 C5            -2.4270     1.3492     0.0324 C.ar    
   6 C6            -1.2343     2.0700     0.0308 C.ar    
   7 F7            -1.1603    -2.0653     0.0006 F       
   8 C8             1.2523     2.1501     0.0016 C.2     
   9 N9             2.4292     1.4934    -0.0131 N.am    
  10 O10            1.2346     3.3656     0.0083 O.2     
  11 C11            3.6217     2.2055    -0.0207 C.2     
  12 S12            3.7442     3.9107    -0.0121 S.3     
  13 C13            5.5020     3.7951    -0.0299 C.2     
  14 C14            5.8316     2.5021    -0.0406 C.2     
  15 N15            4.8041     1.6737    -0.0297 N.2     
  16 C16           -3.6819     2.0387     0.0480 C.1     
  17 N17           -4.6775     2.5857     0.0605 N.1     
  18 C18            7.2614     2.0261    -0.0581 C.3     
  19 C19            7.8777     2.2114     1.3299 C.3     
  20 C20            7.3012     0.5451    -0.4402 C.3     
  21 C21            8.0568     2.8384    -1.0820 C.3     
  22 H22            0.9452    -0.5302    -0.0098 H       
  23 H23           -3.3194    -0.6075     0.0292 H       
  24 H24           -1.2536     3.1498     0.0371 H       
  25 H25            2.4434     0.5235    -0.0185 H       
  26 H26            6.1923     4.6257    -0.0319 H       
  27 H27            7.3110     1.6327     2.0593 H       
  28 H28            8.9118     1.8672     1.3172 H       
  29 H29            7.8493     3.2665     1.6021 H       
  30 H30            6.8621     0.4130    -1.4291 H       
  31 H31            8.3353     0.2008    -0.4529 H       
  32 H32            6.7345    -0.0337     0.2892 H       
  33 H33            8.0284     3.8935    -0.8098 H       
  34 H34            9.0909     2.4942    -1.0947 H       
  35 H35            7.6177     2.7064    -2.0708 H       
@<TRIPOS>BOND
   1    1    2 ar
   2    1    8 1
   3    1    6 ar
   4    2    3 ar
   5    2   22 1
   6    3    4 ar
   7    3    7 1
   8    4    5 ar
   9    4   23 1
  10    5    6 ar
  11    5   16 1
  12    6   24 1
  13    8    9 am
  14    8   10 2
  15    9   11 1
  16    9   25 1
  17   11   12 1
  18   11   15 2
  19   12   13 1
  20   13   14 2
  21   13   26 1
  22   14   15 1
  23   14   18 1
  24   16   17 3
  25   18   19 1
  26   18   20 1
  27   18   21 1
  28   19   27 1
  29   19   28 1
  30   19   29 1
  31   20   30 1
  32   20   31 1
  33   20   32 1
  34   21   33 1
  35   21   34 1
  36   21   35 1

#	End of record

