#	Name: ASD09740237
#	Creating user name:	WinNT
#	Creation time:	15. 06. 2019 21:23

#	Modifying user name:	WinNT
#	Modification time:	15. 06. 2019 21:23

#	Program:	/corina/corina34_cracker 3.40 0067  02.08.2006

@<TRIPOS>MOLECULE
ASD09740237
  56   58    0    0    0
SMALL
NO_CHARGES


@<TRIPOS>ATOM
   1 C1            -0.0161     1.3325     0.0094 C.2     
   2 O2             0.0021    -0.0041     0.0020 O.3     
   3 N3            -1.1317    -0.4349     0.0110 N.2     
   4 C4            -1.9878     0.5533     0.0248 C.2     
   5 N5            -1.2728     1.7010     0.0291 N.2     
   6 C6            -3.4674     0.4371     0.0389 C.ar    
   7 C7            -4.0701    -0.8191     0.0387 C.ar    
   8 C8            -4.2586     1.5837     0.0582 C.ar    
   9 C9            -5.6341     1.4699     0.0717 C.ar    
  10 C10           -6.2272     0.2203     0.0661 C.ar    
  11 C11           -5.4464    -0.9214     0.0523 C.ar    
  12 C12            1.1840     2.2440     0.0028 C.3     
  13 C13            2.0386     1.9710     1.2422 C.3     
  14 C14           -7.7295     0.1023     0.0810 C.3     
  15 C15            2.0016     1.9891    -1.2372 C.ar    
  16 N16           -8.2324     0.0771    -1.2991 N.3     
  17 C17           -9.6585    -0.2733    -1.3334 C.3     
  18 C18           -7.9892     1.3604    -1.9714 C.3     
  19 C19            2.2193     3.0100    -2.1435 C.ar    
  20 C20            2.9692     2.7762    -3.2810 C.ar    
  21 C21            3.5019     1.5217    -3.5119 C.ar    
  22 C22            3.2850     0.5011    -2.6052 C.ar    
  23 C23            2.5387     0.7360    -1.4656 C.ar    
  24 C24            4.3186     1.2666    -4.7525 C.3     
  25 C25            5.7922     1.5578    -4.4617 C.3     
  26 C26            6.6367     1.1806    -5.6805 C.3     
  27 C27            5.9679     3.0475    -4.1607 C.3     
  28 H28           -3.4614    -1.7111     0.0275 H       
  29 H29           -3.7965     2.5599     0.0629 H       
  30 H30           -6.2484     2.3580     0.0871 H       
  31 H31           -5.9146    -1.8946     0.0480 H       
  32 H32            0.8518     3.2821     0.0120 H       
  33 H33            1.4472     2.1553     2.1391 H       
  34 H34            2.3708     0.9329     1.2330 H       
  35 H35            2.9066     2.6302     1.2374 H       
  36 H36           -8.0166    -0.8183     0.5891 H       
  37 H37           -8.1559     0.9561     0.6075 H       
  38 H38          -10.2276     0.4642    -0.7674 H       
  39 H39          -10.0051    -0.2848    -2.3667 H       
  40 H40           -9.8011    -1.2595    -0.8914 H       
  41 H41           -6.9183     1.5619    -1.9933 H       
  42 H42           -8.3712     1.3143    -2.9913 H       
  43 H43           -8.4979     2.1571    -1.4286 H       
  44 H44            1.8031     3.9901    -1.9631 H       
  45 H45            3.1386     3.5736    -3.9894 H       
  46 H46            3.7008    -0.4792    -2.7858 H       
  47 H47            2.3692    -0.0614    -0.7571 H       
  48 H48            4.2065     0.2249    -5.0534 H       
  49 H49            3.9715     1.9162    -5.5559 H       
  50 H50            6.1152     0.9725    -3.6007 H       
  51 H51            6.3137     1.7659    -6.5415 H       
  52 H52            7.6866     1.3881    -5.4734 H       
  53 H53            6.5115     0.1193    -5.8950 H       
  54 H54            7.0178     3.2550    -3.9535 H       
  55 H55            5.6449     3.6327    -5.0217 H       
  56 H56            5.3663     3.3162    -3.2924 H       
@<TRIPOS>BOND
   1    1    2 1
   2    1   12 1
   3    1    5 2
   4    2    3 1
   5    3    4 2
   6    4    5 1
   7    4    6 1
   8    6    7 ar
   9    6    8 ar
  10    7   11 ar
  11    7   28 1
  12    8    9 ar
  13    8   29 1
  14    9   10 ar
  15    9   30 1
  16   10   11 ar
  17   10   14 1
  18   11   31 1
  19   12   13 1
  20   12   15 1
  21   12   32 1
  22   13   33 1
  23   13   34 1
  24   13   35 1
  25   14   16 1
  26   14   36 1
  27   14   37 1
  28   15   19 ar
  29   15   23 ar
  30   16   17 1
  31   16   18 1
  32   17   38 1
  33   17   39 1
  34   17   40 1
  35   18   41 1
  36   18   42 1
  37   18   43 1
  38   19   20 ar
  39   19   44 1
  40   20   21 ar
  41   20   45 1
  42   21   22 ar
  43   21   24 1
  44   22   23 ar
  45   22   46 1
  46   23   47 1
  47   24   25 1
  48   24   48 1
  49   24   49 1
  50   25   26 1
  51   25   27 1
  52   25   50 1
  53   26   51 1
  54   26   52 1
  55   26   53 1
  56   27   54 1
  57   27   55 1
  58   27   56 1

#	End of record

