#	Name: ASD01916284
#	Creating user name:	WinNT
#	Creation time:	15. 06. 2019 20:07

#	Modifying user name:	WinNT
#	Modification time:	15. 06. 2019 20:07

#	Program:	/corina/corina34_cracker 3.40 0067  02.08.2006

@<TRIPOS>MOLECULE
ASD01916284
  28   30    0    0    0
SMALL
NO_CHARGES


@<TRIPOS>ATOM
   1 C1             0.0974     1.3425     0.5024 C.2     
   2 N2             0.1205    -0.0007     0.5169 N.am    
   3 C3             1.2074    -0.6750     0.0131 C.2     
   4 C4             2.3250     0.0997    -0.5328 C.2     
   5 C5             2.2394     1.4444    -0.5176 C.2     
   6 N6             1.1211     2.0554     0.0024 N.am    
   7 N7             0.9863    -1.9659     0.1426 N.2     
   8 C8            -0.2104    -2.1547     0.7149 C.2     
   9 C9            -0.7675    -0.9518     0.9569 C.2     
  10 O10           -0.8727     1.9257     0.9466 O.2     
  11 I11            4.0145    -0.8595    -1.3167 I       
  12 C12            1.0479     3.4547     0.0102 C.ar    
  13 C13            0.4941     4.1279    -1.0706 C.ar    
  14 C14            0.4229     5.5071    -1.0610 C.ar    
  15 C15            0.9034     6.2186     0.0255 C.ar    
  16 C16            1.4560     5.5491     1.1045 C.ar    
  17 C17            1.5239     4.1697     1.1012 C.ar    
  18 F18            0.8333     7.5678     0.0329 F       
  19 C19           -0.8307    -3.4905     1.0340 C.3     
  20 Cl20          -0.3490    -3.9952     2.6966 Cl      
  21 H21            3.0476     2.0421    -0.9126 H       
  22 H22           -1.7302    -0.7699     1.4113 H       
  23 H23            0.1196     3.5734    -1.9184 H       
  24 H24           -0.0074     6.0311    -1.9016 H       
  25 H25            1.8302     6.1058     1.9509 H       
  26 H26            1.9509     3.6477     1.9447 H       
  27 H27           -1.9163    -3.4094     0.9792 H       
  28 H28           -0.4851    -4.2328     0.3145 H       
@<TRIPOS>BOND
   1    1    2 am
   2    1    6 am
   3    1   10 2
   4    2    3 1
   5    2    9 1
   6    3    4 1
   7    3    7 2
   8    4    5 2
   9    4   11 1
  10    5    6 1
  11    5   21 1
  12    6   12 1
  13    7    8 1
  14    8    9 2
  15    8   19 1
  16    9   22 1
  17   12   13 ar
  18   12   17 ar
  19   13   14 ar
  20   13   23 1
  21   14   15 ar
  22   14   24 1
  23   15   16 ar
  24   15   18 1
  25   16   17 ar
  26   16   25 1
  27   17   26 1
  28   19   20 1
  29   19   27 1
  30   19   28 1

#	End of record

