#	Name: ASD01881502
#	Creating user name:	WinNT
#	Creation time:	15. 06. 2019 19:42

#	Modifying user name:	WinNT
#	Modification time:	15. 06. 2019 19:42

#	Program:	/corina/corina34_cracker 3.40 0067  02.08.2006

@<TRIPOS>MOLECULE
ASD01881502
  58   62    0    0    0
SMALL
NO_CHARGES


@<TRIPOS>ATOM
   1 O1             0.0181     1.3521     0.0056 O.3     
   2 C2             0.5879     0.1406     0.0397 C.2     
   3 N3             1.8780     0.1386    -0.3253 N.am    
   4 C4             2.2796     1.5145    -0.6610 C.3     
   5 C5             0.9985     2.3315    -0.4301 C.3     
   6 C6             0.5541     2.9934    -1.7303 C.3     
   7 C7            -0.7356     3.7818    -1.4878 C.3     
   8 C8            -0.4884     4.8439    -0.4145 C.3     
   9 C9            -0.0625     4.1655     0.8890 C.3     
  10 C10            1.2294     3.3784     0.6547 C.3     
  11 O11           -0.0093    -0.8643     0.3713 O.2     
  12 C12            2.7462    -1.0402    -0.3805 C.3     
  13 C13            2.5070    -2.8057    -4.2670 C.ar    
  14 C14            3.4610    -1.8252    -4.0019 C.ar    
  15 C15            3.5340    -1.2590    -2.7453 C.ar    
  16 C16            2.6619    -1.6625    -1.7504 C.ar    
  17 C17            1.7130    -2.6354    -2.0080 C.ar    
  18 C18            1.6312    -3.2087    -3.2607 C.ar    
  19 C19            2.4197    -3.4137    -5.6175 C.ar    
  20 C20            1.4650    -4.3944    -5.8813 C.ar    
  21 C21            1.3862    -4.9578    -7.1375 C.ar    
  22 C22            2.2568    -4.5490    -8.1391 C.ar    
  23 C23            3.2089    -3.5722    -7.8791 C.ar    
  24 C24            3.2885    -3.0012    -6.6264 C.ar    
  25 O25            2.1771    -5.1061    -9.3756 O.3     
  26 C26            2.9411    -6.2000    -9.6328 C.ar    
  27 C27            3.6878    -6.7806    -8.6176 C.ar    
  28 C28            4.4632    -7.8929    -8.8817 C.ar    
  29 C29            4.4958    -8.4276   -10.1564 C.ar    
  30 C30            3.7531    -7.8506   -11.1700 C.ar    
  31 C31            2.9715    -6.7417   -10.9099 C.ar    
  32 H32            3.0756     1.8541     0.0016 H       
  33 H33            2.5930     1.5790    -1.7030 H       
  34 H34            1.3339     3.6709    -2.0781 H       
  35 H35            0.3752     2.2277    -2.4851 H       
  36 H36           -1.0452     4.2661    -2.4139 H       
  37 H37           -1.5195     3.1024    -1.1531 H       
  38 H38            0.3000     5.5192    -0.7469 H       
  39 H39           -1.4044     5.4104    -0.2466 H       
  40 H40            0.1070     4.9229     1.6543 H       
  41 H41           -0.8480     3.4853     1.2183 H       
  42 H42            1.5261     2.8836     1.5796 H       
  43 H43            2.0184     4.0609     0.3388 H       
  44 H44            3.7754    -0.7431    -0.1791 H       
  45 H45            2.4240    -1.7641     0.3680 H       
  46 H46            4.1424    -1.5094    -4.7780 H       
  47 H47            4.2732    -0.4992    -2.5386 H       
  48 H48            1.0350    -2.9472    -1.2272 H       
  49 H49            0.8897    -3.9680    -3.4609 H       
  50 H50            0.7879    -4.7130    -5.1026 H       
  51 H51            0.6469    -5.7179    -7.3424 H       
  52 H52            3.8847    -3.2562    -8.6600 H       
  53 H53            4.0260    -2.2382    -6.4261 H       
  54 H54            3.6629    -6.3631    -7.6218 H       
  55 H55            5.0448    -8.3450    -8.0919 H       
  56 H56            5.1028    -9.2972   -10.3608 H       
  57 H57            3.7809    -8.2698   -12.1649 H       
  58 H58            2.3878    -6.2944   -11.7009 H       
@<TRIPOS>BOND
   1    1    2 1
   2    1    5 1
   3    2    3 am
   4    2   11 2
   5    3    4 1
   6    3   12 1
   7    4    5 1
   8    4   32 1
   9    4   33 1
  10    5    6 1
  11    5   10 1
  12    6    7 1
  13    6   34 1
  14    6   35 1
  15    7    8 1
  16    7   36 1
  17    7   37 1
  18    8    9 1
  19    8   38 1
  20    8   39 1
  21    9   10 1
  22    9   40 1
  23    9   41 1
  24   10   42 1
  25   10   43 1
  26   12   16 1
  27   12   44 1
  28   12   45 1
  29   13   14 ar
  30   13   18 ar
  31   13   19 1
  32   14   15 ar
  33   14   46 1
  34   15   16 ar
  35   15   47 1
  36   16   17 ar
  37   17   18 ar
  38   17   48 1
  39   18   49 1
  40   19   20 ar
  41   19   24 ar
  42   20   21 ar
  43   20   50 1
  44   21   22 ar
  45   21   51 1
  46   22   23 ar
  47   22   25 1
  48   23   24 ar
  49   23   52 1
  50   24   53 1
  51   25   26 1
  52   26   27 ar
  53   26   31 ar
  54   27   28 ar
  55   27   54 1
  56   28   29 ar
  57   28   55 1
  58   29   30 ar
  59   29   56 1
  60   30   31 ar
  61   30   57 1
  62   31   58 1

#	End of record

