#	Name: ASD02198247
#	Creating user name:	WinNT
#	Creation time:	15. 06. 2019 20:19

#	Modifying user name:	WinNT
#	Modification time:	15. 06. 2019 20:19

#	Program:	/corina/corina34_cracker 3.40 0067  02.08.2006

@<TRIPOS>MOLECULE
ASD02198247
  52   55    0    0    0
SMALL
NO_CHARGES


@<TRIPOS>ATOM
   1 C1            -0.3977     1.5990    -0.3990 C.2     
   2 C2            -0.3019     0.2595    -0.1806 C.2     
   3 C3            -1.4619    -0.6806    -0.3851 C.3     
   4 S4             1.1424     2.3759    -0.0611 S.3     
   5 C5             1.8704     0.8346     0.3702 C.2     
   6 C6             0.9331    -0.1707     0.2403 C.2     
   7 C7             3.2017     0.6538     0.7832 C.2     
   8 C8             4.0659     1.8297     1.0312 C.ar    
   9 O9             3.6449    -0.4720     0.9371 O.2     
  10 N10            1.2150    -1.5047     0.5121 N.pl3   
  11 N11           -1.5380     2.2527    -0.8296 N.pl3   
  12 C12           -1.4858     3.6141    -1.1482 C.ar    
  13 C13           -0.3811     4.1302    -1.8135 C.ar    
  14 C14            3.5081     3.0261     1.4834 C.ar    
  15 C15           -1.4543    -1.1939    -1.8265 C.3     
  16 C16           -0.3305     5.4737    -2.1280 C.ar    
  17 C17           -1.3829     6.3082    -1.7796 C.ar    
  18 C18           -2.4865     5.7935    -1.1146 C.ar    
  19 C19           -2.5412     4.4492    -0.8045 C.ar    
  20 O20           -1.3324     7.6310    -2.0896 O.3     
  21 C21           -0.9973     8.5048    -1.1044 C.ar    
  22 C22           -0.8666     9.8566    -1.3891 C.ar    
  23 C23           -0.5259    10.7427    -0.3857 C.ar    
  24 C24           -0.3147    10.2837     0.9014 C.ar    
  25 C25           -0.4443     8.9372     1.1878 C.ar    
  26 C26           -0.7908     8.0476     0.1894 C.ar    
  27 C27            4.3190     4.1184     1.7132 C.ar    
  28 C28            5.6825     4.0293     1.4957 C.ar    
  29 C29            6.2417     2.8459     1.0474 C.ar    
  30 C30            5.4424     1.7447     0.8193 C.ar    
  31 H31           -1.3723    -1.5228     0.3010 H       
  32 H32           -2.3958    -0.1526    -0.1924 H       
  33 H33            2.1024    -1.7625     0.8069 H       
  34 H34            0.5243    -2.1775     0.4071 H       
  35 H35           -2.3739     1.7673    -0.9107 H       
  36 H36            0.4383     3.4809    -2.0844 H       
  37 H37            2.4439     3.0971     1.6529 H       
  38 H38           -1.5439    -0.3517    -2.5126 H       
  39 H39           -0.5204    -1.7218    -2.0192 H       
  40 H40           -2.2933    -1.8738    -1.9744 H       
  41 H41            0.5285     5.8752    -2.6449 H       
  42 H42           -3.3049     6.4439    -0.8432 H       
  43 H43           -3.4003     4.0487    -0.2869 H       
  44 H44           -1.0308    10.2155    -2.3944 H       
  45 H45           -0.4241    11.7949    -0.6068 H       
  46 H46           -0.0477    10.9780     1.6843 H       
  47 H47           -0.2784     8.5812     2.1938 H       
  48 H48           -0.8919     6.9960     0.4136 H       
  49 H49            3.8886     5.0450     2.0632 H       
  50 H50            6.3130     4.8874     1.6764 H       
  51 H51            7.3067     2.7828     0.8792 H       
  52 H52            5.8801     0.8213     0.4697 H       
@<TRIPOS>BOND
   1    1    2 2
   2    1    4 1
   3    1   11 1
   4    2    3 1
   5    2    6 1
   6    3   15 1
   7    3   31 1
   8    3   32 1
   9    4    5 1
  10    5    6 2
  11    5    7 1
  12    6   10 1
  13    7    8 1
  14    7    9 2
  15    8   14 ar
  16    8   30 ar
  17   10   33 1
  18   10   34 1
  19   11   12 1
  20   11   35 1
  21   12   13 ar
  22   12   19 ar
  23   13   16 ar
  24   13   36 1
  25   14   27 ar
  26   14   37 1
  27   15   38 1
  28   15   39 1
  29   15   40 1
  30   16   17 ar
  31   16   41 1
  32   17   18 ar
  33   17   20 1
  34   18   19 ar
  35   18   42 1
  36   19   43 1
  37   20   21 1
  38   21   22 ar
  39   21   26 ar
  40   22   23 ar
  41   22   44 1
  42   23   24 ar
  43   23   45 1
  44   24   25 ar
  45   24   46 1
  46   25   26 ar
  47   25   47 1
  48   26   48 1
  49   27   28 ar
  50   27   49 1
  51   28   29 ar
  52   28   50 1
  53   29   30 ar
  54   29   51 1
  55   30   52 1

#	End of record

