#	Name: ASD01350037
#	Creating user name:	WinNT
#	Creation time:	15. 06. 2019 19:16

#	Modifying user name:	WinNT
#	Modification time:	15. 06. 2019 19:16

#	Program:	/corina/corina34_cracker 3.40 0067  02.08.2006

@<TRIPOS>MOLECULE
ASD01350037
  38   40    0    0    0
SMALL
NO_CHARGES


@<TRIPOS>ATOM
   1 C1            -0.0167     1.3779     0.0096 C.ar    
   2 C2             0.0021    -0.0041     0.0020 C.ar    
   3 C3             1.2084    -0.6771    -0.0131 C.ar    
   4 C4             2.3998     0.0283    -0.0202 C.ar    
   5 C5             2.3810     1.4107    -0.0126 C.ar    
   6 C6             1.1710     2.0835     0.0021 C.ar    
   7 C7             3.8311    -0.4638    -0.0359 C.3     
   8 C8             4.6718     0.7530    -0.4773 C.3     
   9 C9             3.7985     1.9416    -0.0226 C.3     
  10 C10            6.0246     0.7675     0.2374 C.3     
  11 C11            6.8457    -0.4114    -0.2177 C.ar    
  12 C12            6.8420    -1.5812     0.5167 C.ar    
  13 C13            7.5953    -2.6632     0.0996 C.ar    
  14 C14            8.3539    -2.5773    -1.0529 C.ar    
  15 C15            8.3614    -1.4092    -1.7908 C.ar    
  16 C16            7.6018    -0.3245    -1.3779 C.ar    
  17 N17            3.9189     3.0554    -0.9729 N.3     
  18 O18            7.6075     0.8255    -2.1020 O.3     
  19 C19            8.4189     0.8476    -3.2781 C.3     
  20 H20           -0.9589     1.9056     0.0170 H       
  21 H21           -0.9255    -0.5573     0.0083 H       
  22 H22            1.2222    -1.7570    -0.0191 H       
  23 H23            1.1556     3.1633     0.0076 H       
  24 H24            4.1303    -0.7888     0.9606 H       
  25 H25            3.9428    -1.2797    -0.7500 H       
  26 H26            4.8039     0.7608    -1.5592 H       
  27 H27            4.0889     2.2636     0.9774 H       
  28 H28            6.5517     1.6912    -0.0012 H       
  29 H29            5.8673     0.7066     1.3143 H       
  30 H30            6.2504    -1.6507     1.4176 H       
  31 H31            7.5913    -3.5769     0.6755 H       
  32 H32            8.9414    -3.4237    -1.3765 H       
  33 H33            8.9545    -1.3424    -2.6909 H       
  34 H34            3.3517     3.8388    -0.6855 H       
  35 H35            4.8830     3.3300    -1.0879 H       
  36 H36            8.0840     0.0706    -3.9652 H       
  37 H37            8.3327     1.8212    -3.7607 H       
  38 H38            9.4589     0.6680    -3.0055 H       
@<TRIPOS>BOND
   1    1    2 ar
   2    1    6 ar
   3    1   20 1
   4    2    3 ar
   5    2   21 1
   6    3    4 ar
   7    3   22 1
   8    4    5 ar
   9    4    7 1
  10    5    6 ar
  11    5    9 1
  12    6   23 1
  13    7    8 1
  14    7   24 1
  15    7   25 1
  16    8    9 1
  17    8   10 1
  18    8   26 1
  19    9   17 1
  20    9   27 1
  21   10   11 1
  22   10   28 1
  23   10   29 1
  24   11   12 ar
  25   11   16 ar
  26   12   13 ar
  27   12   30 1
  28   13   14 ar
  29   13   31 1
  30   14   15 ar
  31   14   32 1
  32   15   16 ar
  33   15   33 1
  34   16   18 1
  35   17   34 1
  36   17   35 1
  37   18   19 1
  38   19   36 1
  39   19   37 1
  40   19   38 1

#	End of record

