#	Name: ASD03912049
#	Creating user name:	WinNT
#	Creation time:	15. 06. 2019 20:47

#	Modifying user name:	WinNT
#	Modification time:	15. 06. 2019 20:47

#	Program:	/corina/corina34_cracker 3.40 0067  02.08.2006

@<TRIPOS>MOLECULE
ASD03912049
  66   68    0    0    0
SMALL
NO_CHARGES


@<TRIPOS>ATOM
   1 C1             1.2645     1.9503    -0.1131 C.ar    
   2 C2             1.5716     0.7661     0.5314 C.ar    
   3 C3             0.5791     0.0456     1.1703 C.ar    
   4 C4            -0.7227     0.5069     1.1661 C.ar    
   5 C5            -1.0344     1.6959     0.5197 C.ar    
   6 C6            -0.0343     2.4202    -0.1157 C.ar    
   7 C7             2.3492     2.7323    -0.8081 C.3     
   8 C8             0.9183    -1.2445     1.8715 C.3     
   9 N9            -2.3523     2.1660     0.5136 N.am    
  10 C10           -2.5951     3.4913     0.5446 C.2     
  11 C11           -4.0075     4.0017     0.4193 C.3     
  12 O12           -1.6770     4.2732     0.6734 O.2     
  13 C13           -4.0052     5.5073     0.4835 C.ar    
  14 C14           -3.8802     6.2474    -0.6777 C.ar    
  15 C15           -3.8778     7.6277    -0.6216 C.ar    
  16 C16           -4.0008     8.2712     0.6013 C.ar    
  17 C17           -4.1261     7.5263     1.7650 C.ar    
  18 C18           -4.1337     6.1463     1.7029 C.ar    
  19 O19           -3.9983     9.6290     0.6592 O.3     
  20 C20           -4.1910    10.2239     1.9441 C.3     
  21 C21           -5.5533     9.8653     2.4795 C.2     
  22 C22           -3.0994     9.7436     2.9164 C.3     
  23 C23           -2.3314    11.0012     3.3728 C.3     
  24 C24           -3.3379    12.1591     3.1598 C.3     
  25 C25           -4.0495    11.7567     1.8433 C.3     
  26 N26           -6.5897     9.7065     1.6327 N.am    
  27 O27           -5.7170     9.7195     3.6723 O.2     
  28 C28           -7.8962     9.2857     2.1448 C.3     
  29 C29           -8.9783     9.7547     1.2067 C.2     
  30 O30           -8.6880    10.3766     0.2123 O.2     
  31 O31          -10.2647     9.4815     1.4757 O.3     
  32 C32           -7.9364     7.7597     2.2475 C.3     
  33 O33           -6.9103     7.3150     3.1371 O.3     
  34 C34           -9.3008     7.3202     2.7823 C.3     
  35 H35            2.5887     0.4029     0.5355 H       
  36 H36           -1.4975    -0.0566     1.6647 H       
  37 H37           -0.2734     3.3454    -0.6189 H       
  38 H38            2.4291     2.4013    -1.8435 H       
  39 H39            2.1041     3.7941    -0.7839 H       
  40 H40            3.2990     2.5670    -0.2995 H       
  41 H41            1.1817    -1.0361     2.9084 H       
  42 H42            0.0565    -1.9112     1.8425 H       
  43 H43            1.7620    -1.7193     1.3707 H       
  44 H44           -3.0911     1.5380     0.4871 H       
  45 H45           -4.4272     3.6793    -0.5336 H       
  46 H46           -4.6112     3.6042     1.2352 H       
  47 H47           -3.7841     5.7459    -1.6294 H       
  48 H48           -3.7798     8.2053    -1.5288 H       
  49 H49           -4.2221     8.0250     2.7182 H       
  50 H50           -4.2311     5.5660     2.6085 H       
  51 H51           -3.5550     9.2519     3.7760 H       
  52 H52           -2.4226     9.0567     2.4082 H       
  53 H53           -2.0593    10.9211     4.4253 H       
  54 H54           -1.4433    11.1498     2.7585 H       
  55 H55           -4.0499    12.2085     3.9836 H       
  56 H56           -2.8153    13.1084     3.0420 H       
  57 H57           -3.4392    12.0271     0.9817 H       
  58 H58           -5.0303    12.2281     1.7804 H       
  59 H59           -6.4706     9.8708     0.6842 H       
  60 H60           -8.0570     9.7206     3.1313 H       
  61 H61          -10.9230     9.8030     0.8446 H       
  62 H62           -7.7756     7.3248     1.2610 H       
  63 H63           -6.0165     7.5589     2.8600 H       
  64 H64          -10.0835     7.6594     2.1038 H       
  65 H65           -9.3294     6.2331     2.8555 H       
  66 H66           -9.4616     7.7551     3.7688 H       
@<TRIPOS>BOND
   1    1    2 ar
   2    1    7 1
   3    1    6 ar
   4    2    3 ar
   5    2   35 1
   6    3    4 ar
   7    3    8 1
   8    4    5 ar
   9    4   36 1
  10    5    6 ar
  11    5    9 1
  12    6   37 1
  13    7   38 1
  14    7   39 1
  15    7   40 1
  16    8   41 1
  17    8   42 1
  18    8   43 1
  19    9   10 am
  20    9   44 1
  21   10   11 1
  22   10   12 2
  23   11   13 1
  24   11   45 1
  25   11   46 1
  26   13   14 ar
  27   13   18 ar
  28   14   15 ar
  29   14   47 1
  30   15   16 ar
  31   15   48 1
  32   16   17 ar
  33   16   19 1
  34   17   18 ar
  35   17   49 1
  36   18   50 1
  37   19   20 1
  38   20   21 1
  39   20   22 1
  40   20   25 1
  41   21   26 am
  42   21   27 2
  43   22   23 1
  44   22   51 1
  45   22   52 1
  46   23   24 1
  47   23   53 1
  48   23   54 1
  49   24   25 1
  50   24   55 1
  51   24   56 1
  52   25   57 1
  53   25   58 1
  54   26   28 1
  55   26   59 1
  56   28   29 1
  57   28   32 1
  58   28   60 1
  59   29   30 2
  60   29   31 1
  61   31   61 1
  62   32   33 1
  63   32   34 1
  64   32   62 1
  65   33   63 1
  66   34   64 1
  67   34   65 1
  68   34   66 1

#	End of record

