#	Name: ASD03320028
#	Creating user name:	WinNT
#	Creation time:	15. 06. 2019 20:36

#	Modifying user name:	WinNT
#	Modification time:	15. 06. 2019 20:36

#	Program:	/corina/corina34_cracker 3.40 0067  02.08.2006

@<TRIPOS>MOLECULE
ASD03320028
  60   64    0    0    0
SMALL
NO_CHARGES


@<TRIPOS>ATOM
   1 C1            -0.0869     0.3401     0.8192 C.ar    
   2 C2            -0.0294    -1.0416     0.6380 C.ar    
   3 C3             1.0702     1.0868     0.7968 C.ar    
   4 C4             2.3013     0.4600     0.5927 C.ar    
   5 C5             2.3579    -0.9235     0.4114 C.ar    
   6 C6             1.1996    -1.6685     0.4341 C.ar    
   7 C7             3.5438     1.2606     0.5681 C.2     
   8 N8             3.5726     2.4402    -0.0831 N.am    
   9 O9             4.5395     0.8549     1.1352 O.2     
  10 C10           -1.2761    -1.8448     0.6627 C.ar    
  11 C11           -1.2315    -3.2248     0.4830 C.ar    
  12 C12           -2.4329    -3.9332     0.5151 C.ar    
  13 N13           -3.5682    -3.2693     0.7146 N.ar    
  14 C14           -3.5680    -1.9617     0.8806 C.ar    
  15 N15           -2.4566    -1.2569     0.8628 N.ar    
  16 N16           -2.4435    -5.3088     0.3412 N.pl3   
  17 C17           -3.6368    -6.0237     0.4909 C.ar    
  18 C18           -3.8529    -7.1788    -0.2491 C.ar    
  19 C19           -5.0317    -7.8830    -0.0997 C.ar    
  20 C20           -5.9976    -7.4379     0.7871 C.ar    
  21 C21           -5.7843    -6.2862     1.5256 C.ar    
  22 C22           -4.6045    -5.5823     1.3839 C.ar    
  23 C23            4.7630     3.2998    -0.0213 C.3     
  24 C24            5.2269     3.5982    -1.4525 C.3     
  25 N25            4.0686     4.0476    -2.2375 N.am    
  26 C26            2.8782     3.1880    -2.2993 C.3     
  27 C27            2.4164     2.8871    -0.8727 C.3     
  28 C28            4.0974     5.2272    -2.8887 C.2     
  29 C29            5.3403     6.0246    -2.9178 C.ar    
  30 O30            3.1003     5.6350    -3.4522 O.2     
  31 C31            5.3157     7.3773    -2.5647 C.ar    
  32 C32            6.4845     8.1164    -2.5944 C.ar    
  33 C33            7.6728     7.5199    -2.9716 C.ar    
  34 C34            7.7027     6.1808    -3.3222 C.ar    
  35 C35            6.5471     5.4298    -3.2925 C.ar    
  36 F36            4.1541     7.9606    -2.1963 F       
  37 F37           -7.1499    -8.1282     0.9316 F       
  38 H38           -1.0396     0.8252     0.9726 H       
  39 H39            1.0254     2.1567     0.9368 H       
  40 H40            3.3095    -1.4091     0.2531 H       
  41 H41            1.2432    -2.7385     0.2939 H       
  42 H42           -0.2922    -3.7331     0.3228 H       
  43 H43           -4.5077    -1.4540     1.0404 H       
  44 H44           -1.6236    -5.7754     0.1157 H       
  45 H45           -3.1000    -7.5261    -0.9411 H       
  46 H46           -5.2003    -8.7811    -0.6753 H       
  47 H47           -6.5393    -5.9404     2.2162 H       
  48 H48           -4.4386    -4.6840     1.9601 H       
  49 H49            4.5146     4.2328     0.4847 H       
  50 H50            5.5570     2.7867     0.5211 H       
  51 H51            5.9839     4.3822    -1.4357 H       
  52 H52            5.6425     2.6944    -1.8982 H       
  53 H53            2.0842     3.7011    -2.8418 H       
  54 H54            3.1266     2.2550    -2.8053 H       
  55 H55            1.6595     2.1030    -0.8910 H       
  56 H56            2.0010     3.7897    -0.4247 H       
  57 H57            6.4685     9.1615    -2.3225 H       
  58 H58            8.5826     8.1014    -2.9935 H       
  59 H59            8.6353     5.7220    -3.6159 H       
  60 H60            6.5733     4.3855    -3.5665 H       
@<TRIPOS>BOND
   1    1    2 ar
   2    1    3 ar
   3    1   38 1
   4    2   10 1
   5    2    6 ar
   6    3    4 ar
   7    3   39 1
   8    4    5 ar
   9    4    7 1
  10    5    6 ar
  11    5   40 1
  12    6   41 1
  13    7    8 am
  14    7    9 2
  15    8   23 1
  16    8   27 1
  17   10   11 ar
  18   10   15 ar
  19   11   12 ar
  20   11   42 1
  21   12   13 ar
  22   12   16 1
  23   13   14 ar
  24   14   15 ar
  25   14   43 1
  26   16   17 1
  27   16   44 1
  28   17   18 ar
  29   17   22 ar
  30   18   19 ar
  31   18   45 1
  32   19   20 ar
  33   19   46 1
  34   20   21 ar
  35   20   37 1
  36   21   22 ar
  37   21   47 1
  38   22   48 1
  39   23   24 1
  40   23   49 1
  41   23   50 1
  42   24   25 1
  43   24   51 1
  44   24   52 1
  45   25   26 1
  46   25   28 am
  47   26   27 1
  48   26   53 1
  49   26   54 1
  50   27   55 1
  51   27   56 1
  52   28   29 1
  53   28   30 2
  54   29   31 ar
  55   29   35 ar
  56   31   32 ar
  57   31   36 1
  58   32   33 ar
  59   32   57 1
  60   33   34 ar
  61   33   58 1
  62   34   35 ar
  63   34   59 1
  64   35   60 1

#	End of record

