#	Name: ASD01812960
#	Creating user name:	WinNT
#	Creation time:	15. 06. 2019 19:29

#	Modifying user name:	WinNT
#	Modification time:	15. 06. 2019 19:29

#	Program:	/corina/corina34_cracker 3.40 0067  02.08.2006

@<TRIPOS>MOLECULE
ASD01812960
  47   51    0    0    0
SMALL
NO_CHARGES


@<TRIPOS>ATOM
   1 C1             0.0856     1.3261    -0.1245 C.ar    
   2 C2             0.1664    -0.0521    -0.1212 C.ar    
   3 C3             1.3946    -0.6806     0.0200 C.ar    
   4 C4             2.5395     0.0665     0.1571 C.ar    
   5 C5             2.4766     1.4632     0.1556 C.ar    
   6 C6             1.2330     2.0938     0.0130 C.ar    
   7 C7             3.9945    -0.2936     0.3260 C.3     
   8 N8             4.7229     0.9771     0.4165 N.am    
   9 C9             3.8425     1.9879     0.3177 C.2     
  10 C10            6.1709     1.1203     0.5871 C.3     
  11 C11            6.8331     1.1750    -0.7655 C.ar    
  12 O12            1.1517     3.4479     0.0091 O.3     
  13 O13            4.1329     3.1680     0.3566 O.2     
  14 C14            7.0193     2.3926    -1.3939 C.ar    
  15 C15            7.6259     2.4460    -2.6336 C.ar    
  16 C16            8.0487     1.2754    -3.2489 C.ar    
  17 C17            7.8603     0.0544    -2.6155 C.ar    
  18 C18            7.2582     0.0080    -1.3733 C.ar    
  19 C19            1.3391     4.0941    -1.1696 C.ar    
  20 N20            8.9160     2.4833    -5.2558 N.2     
  21 N21            8.6642     1.3263    -4.5073 N.pl3   
  22 C22            9.1208     0.2672    -5.2133 C.2     
  23 C23            9.6438     0.7376    -6.3693 C.2     
  24 C24            9.5028     2.1296    -6.3710 C.2     
  25 N25            1.6319     3.4012    -2.2573 N.ar    
  26 C26            1.8220     3.9893    -3.4231 C.ar    
  27 C27            1.7212     5.3605    -3.5499 C.ar    
  28 C28            1.4156     6.1255    -2.4330 C.ar    
  29 C29            1.2160     5.4786    -1.2238 C.ar    
  30 F30            0.9113     6.1831    -0.1120 F       
  31 H31           -0.8739     1.8085    -0.2390 H       
  32 H32           -0.7309    -0.6434    -0.2287 H       
  33 H33            1.4511    -1.7591     0.0225 H       
  34 H34            4.1340    -0.8714     1.2396 H       
  35 H35            4.3418    -0.8640    -0.5355 H       
  36 H36            6.3833     2.0395     1.1330 H       
  37 H37            6.5569     0.2681     1.1464 H       
  38 H38            6.6899     3.3028    -0.9149 H       
  39 H39            7.7708     3.3972    -3.1240 H       
  40 H40            8.1879    -0.8579    -3.0919 H       
  41 H41            7.1157    -0.9411    -0.8781 H       
  42 H42            9.0764    -0.7681    -4.9091 H       
  43 H43           10.0914     0.1434    -7.1523 H       
  44 H44            9.8230     2.7974    -7.1571 H       
  45 H45            2.0600     3.3901    -4.2895 H       
  46 H46            1.8789     5.8329    -4.5083 H       
  47 H47            1.3310     7.1998    -2.5054 H       
@<TRIPOS>BOND
   1    1    2 ar
   2    1    6 ar
   3    1   31 1
   4    2    3 ar
   5    2   32 1
   6    3    4 ar
   7    3   33 1
   8    4    7 1
   9    4    5 ar
  10    5    6 ar
  11    5    9 1
  12    6   12 1
  13    7    8 1
  14    7   34 1
  15    7   35 1
  16    8    9 am
  17    8   10 1
  18    9   13 2
  19   10   11 1
  20   10   36 1
  21   10   37 1
  22   11   14 ar
  23   11   18 ar
  24   12   19 1
  25   14   15 ar
  26   14   38 1
  27   15   16 ar
  28   15   39 1
  29   16   17 ar
  30   16   21 1
  31   17   18 ar
  32   17   40 1
  33   18   41 1
  34   19   25 ar
  35   19   29 ar
  36   20   21 1
  37   20   24 2
  38   21   22 1
  39   22   23 2
  40   22   42 1
  41   23   24 1
  42   23   43 1
  43   24   44 1
  44   25   26 ar
  45   26   27 ar
  46   26   45 1
  47   27   28 ar
  48   27   46 1
  49   28   29 ar
  50   28   47 1
  51   29   30 1

#	End of record

