#	Name: ASD03093013
#	Creating user name:	WinNT
#	Creation time:	15. 06. 2019 20:33

#	Modifying user name:	WinNT
#	Modification time:	15. 06. 2019 20:33

#	Program:	/corina/corina34_cracker 3.40 0067  02.08.2006

@<TRIPOS>MOLECULE
ASD03093013
  53   58    0    0    0
SMALL
NO_CHARGES


@<TRIPOS>ATOM
   1 C1            -0.5364     1.9411     0.5452 C.3     
   2 N2            -0.3754     0.4980     0.3505 N.am    
   3 C3            -1.3308    -0.3505     0.7791 C.2     
   4 C4            -1.1651    -1.8350     0.5789 C.3     
   5 O5            -2.3237     0.0805     1.3260 O.2     
   6 C6            -2.3630    -2.5547     1.1429 C.ar    
   7 N7            -3.3974    -2.7765     0.3489 N.ar    
   8 C8            -4.4832    -3.4051     0.7841 C.ar    
   9 C9            -4.5090    -3.8378     2.1336 C.ar    
  10 C10           -3.3750    -3.5754     2.9420 C.ar    
  11 N11           -2.3299    -2.9372     2.3975 N.ar    
  12 C12           -5.6331    -3.6465    -0.1137 C.ar    
  13 C13            0.8359     2.6468     0.5779 C.3     
  14 C14            0.6094     3.9846    -0.0930 C.ar    
  15 C15           -0.5674     3.9510    -0.8170 C.ar    
  16 C16           -1.2124     2.5882    -0.6822 C.3     
  17 C17            1.3731     5.1399    -0.0720 C.ar    
  18 C18            0.9621     6.2575    -0.7715 C.ar    
  19 C19           -0.2152     6.2238    -1.4957 C.ar    
  20 C20           -0.9777     5.0726    -1.5182 C.ar    
  21 C21           -6.9334    -3.4135     0.3369 C.ar    
  22 C22           -8.0045    -3.6390    -0.5014 C.ar    
  23 C23           -7.7949    -4.0971    -1.7943 C.ar    
  24 C24           -6.4973    -4.3314    -2.2508 C.ar    
  25 C25           -5.4202    -4.1025    -1.4164 C.ar    
  26 C26           -5.6096    -4.5072     2.6797 C.ar    
  27 C27           -5.5770    -4.8993     3.9854 C.ar    
  28 C28           -4.4638    -4.6426     4.7819 C.ar    
  29 C29           -3.3758    -3.9928     4.2806 C.ar    
  30 O30           -8.6692    -4.3922    -2.7992 O.3     
  31 O31           -6.5626    -4.7726    -3.5412 O.3     
  32 C32           -7.8792    -4.4163    -4.0025 C.3     
  33 H33           -1.0999     2.1471     1.4552 H       
  34 H34            0.4188     0.1533    -0.0869 H       
  35 H35           -1.0799    -2.0506    -0.4862 H       
  36 H36           -0.2641    -2.1724     1.0911 H       
  37 H37            1.1627     2.7907     1.6078 H       
  38 H38            1.5732     2.0658     0.0240 H       
  39 H39           -1.0261     1.9915    -1.5751 H       
  40 H40           -2.2842     2.6921    -0.5127 H       
  41 H41            2.2928     5.1669     0.4935 H       
  42 H42            1.5595     7.1570    -0.7525 H       
  43 H43           -0.5382     7.0969    -2.0432 H       
  44 H44           -1.8972     5.0471    -2.0842 H       
  45 H45           -7.1005    -3.0569     1.3426 H       
  46 H46           -9.0099    -3.4588    -0.1506 H       
  47 H47           -4.4154    -4.2834    -1.7686 H       
  48 H48           -6.4787    -4.7115     2.0719 H       
  49 H49           -6.4263    -5.4157     4.4078 H       
  50 H50           -4.4629    -4.9631     5.8132 H       
  51 H51           -2.5195    -3.8010     4.9102 H       
  52 H52           -8.2587    -5.1678    -4.6948 H       
  53 H53           -7.8671    -3.4328    -4.4724 H       
@<TRIPOS>BOND
   1    1    2 1
   2    1   13 1
   3    1   16 1
   4    1   33 1
   5    2    3 am
   6    2   34 1
   7    3    4 1
   8    3    5 2
   9    4    6 1
  10    4   35 1
  11    4   36 1
  12    6    7 ar
  13    6   11 ar
  14    7    8 ar
  15    8    9 ar
  16    8   12 1
  17    9   10 ar
  18    9   26 ar
  19   10   11 ar
  20   10   29 ar
  21   12   21 ar
  22   12   25 ar
  23   13   14 1
  24   13   37 1
  25   13   38 1
  26   14   15 ar
  27   14   17 ar
  28   15   16 1
  29   15   20 ar
  30   16   39 1
  31   16   40 1
  32   17   18 ar
  33   17   41 1
  34   18   19 ar
  35   18   42 1
  36   19   20 ar
  37   19   43 1
  38   20   44 1
  39   21   22 ar
  40   21   45 1
  41   22   23 ar
  42   22   46 1
  43   23   24 ar
  44   23   30 1
  45   24   25 ar
  46   24   31 1
  47   25   47 1
  48   26   27 ar
  49   26   48 1
  50   27   28 ar
  51   27   49 1
  52   28   29 ar
  53   28   50 1
  54   29   51 1
  55   30   32 1
  56   31   32 1
  57   32   52 1
  58   32   53 1

#	End of record

