#	Name: ASD03091688
#	Creating user name:	WinNT
#	Creation time:	15. 06. 2019 20:31

#	Modifying user name:	WinNT
#	Modification time:	15. 06. 2019 20:31

#	Program:	/corina/corina34_cracker 3.40 0067  02.08.2006

@<TRIPOS>MOLECULE
ASD03091688
  44   45    0    0    0
SMALL
NO_CHARGES


@<TRIPOS>ATOM
   1 Cl1            0.0000     0.0000     0.0000 Cl      
   2 H2             0.0000     1.3700     0.0000 H       
   3 Cl3            5.0000     6.3700     5.0000 Cl      
   4 H4             5.0000     7.7400     5.0000 H       
   5 C5            19.5196    16.7275    11.5722 C.ar    
   6 C6            19.5386    15.3266    11.5645 C.ar    
   7 C7            20.7588    14.6461    11.5497 C.ar    
   8 C8            21.9464    15.3518    11.5430 C.ar    
   9 C9            21.9292    16.7484    11.5507 C.ar    
  10 C10           20.7525    17.4249    11.5642 C.ar    
  11 S11           17.8887    14.7140    11.5770 S.3     
  12 C12           17.2311    16.3408    11.5920 C.2     
  13 C13           18.2155    17.2486    11.5932 C.2     
  14 C14           15.8004    16.6620    11.6070 C.2     
  15 O15           15.4376    17.8236    11.6162 O.2     
  16 N16           14.8872    15.6708    11.6104 N.am    
  17 N17           11.9505    15.2462    13.4053 N.3     
  18 C18           12.9981    16.2195    13.0683 C.3     
  19 C19           13.4578    15.9917    11.6254 C.3     
  20 C20           12.6623    14.8226    11.0312 C.3     
  21 C21           11.1690    15.1689    11.0861 C.3     
  22 C22           10.7726    15.4188    12.5439 C.3     
  23 C23           12.4625    13.8711    13.3268 C.3     
  24 C24           12.9076    13.5766    11.8915 C.3     
  25 N25           23.1628    14.6695    11.5291 N.pl3   
  26 Cl26          17.9007    18.9557    11.6072 Cl      
  27 H27           20.7736    13.5662    11.5437 H       
  28 H28           22.8607    17.2950    11.5454 H       
  29 H29           20.7563    18.5049    11.5696 H       
  30 H30           15.1763    14.7449    11.6030 H       
  31 H31           12.6015    17.2298    13.1684 H       
  32 H32           13.8439    16.0919    13.7439 H       
  33 H33           13.2775    16.8921    11.0381 H       
  34 H34           12.9686    14.6465    10.0000 H       
  35 H35           10.9804    16.0666    10.4973 H       
  36 H36           10.5867    14.3387    10.6865 H       
  37 H37           10.0000    14.7083    12.8377 H       
  38 H38           10.3916    16.4347    12.6482 H       
  39 H39           13.3118    13.7601    14.0009 H       
  40 H40           11.6760    13.1733    13.6141 H       
  41 H41           12.3322    12.7400    11.4951 H       
  42 H42           13.9691    13.3293    11.8818 H       
  43 H43           23.1748    13.6996    11.5241 H       
  44 H44           23.9967    15.1650    11.5244 H       
@<TRIPOS>BOND
   1    1    2 1
   2    3    4 1
   3    5    6 ar
   4    5   10 ar
   5    5   13 1
   6    6    7 ar
   7    6   11 1
   8    7    8 ar
   9    7   27 1
  10    8    9 ar
  11    8   25 1
  12    9   10 ar
  13    9   28 1
  14   10   29 1
  15   11   12 1
  16   12   13 2
  17   12   14 1
  18   13   26 1
  19   14   15 2
  20   14   16 am
  21   16   19 1
  22   16   30 1
  23   17   18 1
  24   17   22 1
  25   17   23 1
  26   18   19 1
  27   18   31 1
  28   18   32 1
  29   19   20 1
  30   19   33 1
  31   20   21 1
  32   20   24 1
  33   20   34 1
  34   21   22 1
  35   21   35 1
  36   21   36 1
  37   22   37 1
  38   22   38 1
  39   23   24 1
  40   23   39 1
  41   23   40 1
  42   24   41 1
  43   24   42 1
  44   25   43 1
  45   25   44 1

#	End of record

