#	Name: ASD07300576
#	Creating user name:	WinNT
#	Creation time:	15. 06. 2019 21:10

#	Modifying user name:	WinNT
#	Modification time:	15. 06. 2019 21:10

#	Program:	/corina/corina34_cracker 3.40 0067  02.08.2006

@<TRIPOS>MOLECULE
ASD07300576
  49   52    0    0    0
SMALL
NO_CHARGES


@<TRIPOS>ATOM
   1 C1            -0.0034     1.3930     0.2418 C.2     
   2 C2             0.0021    -0.0041     0.0020 C.2     
   3 N3             1.1908     2.0671     0.2269 N.pl3   
   4 N4             1.1441    -0.6202    -0.2281 N.2     
   5 C5             2.3024     0.0467    -0.2404 C.2     
   6 C6             2.3477     1.3757    -0.0173 C.2     
   7 N7            -0.9702     2.2587     0.5010 N.2     
   8 C8            -0.4513     3.4736     0.6494 C.2     
   9 C9             0.9142     3.3828     0.4824 C.2     
  10 C10           -1.2224     4.7324     0.9526 C.3     
  11 F11           -2.5674     4.4146     1.1697 F       
  12 F12           -0.6953     5.3375     2.0986 F       
  13 F13           -1.1202     5.6138    -0.1291 F       
  14 N14           -1.1861    -0.7177     0.0100 N.pl3   
  15 C15           -2.4814    -0.0309     0.1360 C.3     
  16 C16           -3.4039    -0.5296    -0.9821 C.3     
  17 O17           -3.4384    -1.9587    -0.9615 O.3     
  18 C18           -2.1751    -2.5783    -1.2140 C.3     
  19 C19           -1.1899    -2.1840    -0.1135 C.3     
  20 C20            3.0811     4.3346     1.2763 C.ar    
  21 C21            1.8894     4.4900     0.5655 C.ar    
  22 C22            1.6343     5.7123    -0.0675 C.ar    
  23 C23            2.5801     6.7168     0.0406 C.ar    
  24 C24            3.7360     6.4835     0.7635 C.ar    
  25 N25            3.9500     5.3212     1.3499 N.ar    
  26 C26            4.7683     7.5750     0.8829 C.3     
  27 C27            5.0599     7.8417     2.3609 C.3     
  28 O28            6.0388     8.8766     2.4741 O.3     
  29 C29            6.3847     9.2047     3.8213 C.3     
  30 H30            3.2201    -0.4895    -0.4320 H       
  31 H31            3.2949     1.8944    -0.0316 H       
  32 H32           -2.9243    -0.2575     1.1059 H       
  33 H33           -2.3371     1.0453     0.0402 H       
  34 H34           -4.4094    -0.1389    -0.8259 H       
  35 H35           -3.0255    -0.1884    -1.9457 H       
  36 H36           -2.2965    -3.6615    -1.2248 H       
  37 H37           -1.7922    -2.2446    -2.1785 H       
  38 H38           -0.1908    -2.5330    -0.3744 H       
  39 H39           -1.5005    -2.6311     0.8308 H       
  40 H40            3.2898     3.3990     1.7736 H       
  41 H41            0.7231     5.8673    -0.6261 H       
  42 H42            2.4175     7.6727    -0.4348 H       
  43 H43            5.6851     7.2642     0.3819 H       
  44 H44            4.3903     8.4851     0.4171 H       
  45 H45            4.1431     8.1524     2.8619 H       
  46 H46            5.4379     6.9316     2.8267 H       
  47 H47            5.4953     9.5436     4.3525 H       
  48 H48            6.7901     8.3228     4.3173 H       
  49 H49            7.1324     9.9977     3.8215 H       
@<TRIPOS>BOND
   1    1    2 1
   2    1    3 1
   3    1    7 2
   4    2    4 2
   5    2   14 1
   6    3    6 1
   7    3    9 1
   8    4    5 1
   9    5    6 2
  10    5   30 1
  11    6   31 1
  12    7    8 1
  13    8    9 2
  14    8   10 1
  15    9   21 1
  16   10   11 1
  17   10   12 1
  18   10   13 1
  19   14   15 1
  20   14   19 1
  21   15   16 1
  22   15   32 1
  23   15   33 1
  24   16   17 1
  25   16   34 1
  26   16   35 1
  27   17   18 1
  28   18   19 1
  29   18   36 1
  30   18   37 1
  31   19   38 1
  32   19   39 1
  33   20   21 ar
  34   20   25 ar
  35   20   40 1
  36   21   22 ar
  37   22   23 ar
  38   22   41 1
  39   23   24 ar
  40   23   42 1
  41   24   25 ar
  42   24   26 1
  43   26   27 1
  44   26   43 1
  45   26   44 1
  46   27   28 1
  47   27   45 1
  48   27   46 1
  49   28   29 1
  50   29   47 1
  51   29   48 1
  52   29   49 1

#	End of record

