#	Name: ASD03092767
#	Creating user name:	WinNT
#	Creation time:	15. 06. 2019 20:33

#	Modifying user name:	WinNT
#	Modification time:	15. 06. 2019 20:33

#	Program:	/corina/corina34_cracker 3.40 0067  02.08.2006

@<TRIPOS>MOLECULE
ASD03092767
  46   47    0    0    0
SMALL
NO_CHARGES


@<TRIPOS>ATOM
   1 O1            -0.0161     1.3381     0.0094 O.3     
   2 C2             0.0021    -0.0041     0.0020 C.2     
   3 O3             1.0565    -0.5939    -0.0112 O.2     
   4 C4            -1.2926    -0.7753     0.0102 C.3     
   5 F5            -1.0184    -2.1471     0.0003 F       
   6 F6            -2.0198    -0.4534     1.1613 F       
   7 F7            -2.0416    -0.4412    -1.1232 F       
   8 H8             0.8394     1.7888     0.0037 H       
   9 F9             8.2547     6.7888     7.0911 F       
  10 C10            8.2364     8.1396     7.0985 C.ar    
  11 C11            7.0250     8.8139     7.1195 C.ar    
  12 C12            7.0006    10.1920     7.1276 C.ar    
  13 C13            8.1988    10.9092     7.1147 C.ar    
  14 C14            9.4161    10.2250     7.0936 C.ar    
  15 C15            9.4291     8.8467     7.0909 C.ar    
  16 C16            8.1788    12.3863     7.1228 C.2     
  17 O17            7.1179    12.9797     7.1408 O.2     
  18 N18            9.3366    13.0760     7.1103 N.am    
  19 C19            9.3167    14.5409     7.1184 C.3     
  20 C20           10.7521    15.0705     7.1011 C.3     
  21 C21           10.7355    16.5957     7.2379 C.3     
  22 C22           11.5107    16.9877     8.5020 C.3     
  23 C23           10.8455    16.3181     9.7112 C.3     
  24 C24           10.8597    14.8007     9.5061 C.3     
  25 N25           11.5026    14.4889     8.2221 N.3     
  26 C26           12.9013    14.9392     8.2112 C.3     
  27 C27           12.9459    16.4605     8.3790 C.3     
  28 H28            6.0989     8.2583     7.1291 H       
  29 H29            6.0565    10.7163     7.1436 H       
  30 H30           10.3456    10.7748     7.0835 H       
  31 H31           10.3699     8.3165     7.0791 H       
  32 H32           10.1831    12.6025     7.0959 H       
  33 H33            8.7856    14.9019     6.2376 H       
  34 H34            8.8105    14.8924     8.0174 H       
  35 H35           11.2302    14.7945     6.1613 H       
  36 H36           11.2085    17.0458     6.3651 H       
  37 H37            9.7058    16.9441     7.3181 H       
  38 H38           11.5180    18.0717     8.6162 H       
  39 H39           11.3971    16.5694    10.6171 H       
  40 H40            9.8160    16.6650     9.8002 H       
  41 H41           11.4170    14.3295    10.3158 H       
  42 H42            9.8366    14.4247     9.5015 H       
  43 H43           13.4418    14.4668     9.0314 H       
  44 H44           13.3645    14.6640     7.2637 H       
  45 H45           13.4268    16.9098     7.5101 H       
  46 H46           13.5059    16.7124     9.2796 H       
@<TRIPOS>BOND
   1    1    2 1
   2    1    8 1
   3    2    3 2
   4    2    4 1
   5    4    5 1
   6    4    6 1
   7    4    7 1
   8    9   10 1
   9   10   15 ar
  10   10   11 ar
  11   11   12 ar
  12   11   28 1
  13   12   13 ar
  14   12   29 1
  15   13   14 ar
  16   13   16 1
  17   14   15 ar
  18   14   30 1
  19   15   31 1
  20   16   17 2
  21   16   18 am
  22   18   19 1
  23   18   32 1
  24   19   20 1
  25   19   33 1
  26   19   34 1
  27   20   25 1
  28   20   21 1
  29   20   35 1
  30   21   22 1
  31   21   36 1
  32   21   37 1
  33   22   27 1
  34   22   23 1
  35   22   38 1
  36   23   24 1
  37   23   39 1
  38   23   40 1
  39   24   25 1
  40   24   41 1
  41   24   42 1
  42   25   26 1
  43   26   27 1
  44   26   43 1
  45   26   44 1
  46   27   45 1
  47   27   46 1

#	End of record

