#	Name: ASD03240716
#	Creating user name:	WinNT
#	Creation time:	15. 06. 2019 20:35

#	Modifying user name:	WinNT
#	Modification time:	15. 06. 2019 20:35

#	Program:	/corina/corina34_cracker 3.40 0067  02.08.2006

@<TRIPOS>MOLECULE
ASD03240716
  75   81    0    0    0
SMALL
NO_CHARGES


@<TRIPOS>ATOM
   1 C1            -0.0179     1.4718     0.0101 C.2     
   2 C2             0.0021    -0.0041     0.0020 C.ar    
   3 C3             1.2205    -0.6880    -0.0133 C.ar    
   4 C4             1.2349    -2.0650    -0.0209 C.ar    
   5 C5             0.0396    -2.7744    -0.0138 C.ar    
   6 C6            -1.1744    -2.0978     0.0010 C.ar    
   7 C7            -1.1973    -0.7210     0.0154 C.ar    
   8 O8             1.0266     2.0940     0.0035 O.2     
   9 N9            -1.1942     2.1298     0.0193 N.am    
  10 N10           -2.4573     6.0535     0.8915 N.3     
  11 C11           -2.5726     5.6201    -0.5068 C.3     
  12 C12           -2.5317     4.0918    -0.5736 C.3     
  13 C13           -1.2140     3.5946     0.0273 C.3     
  14 C14           -1.0963     4.1000     1.4679 C.3     
  15 C15           -1.1789     5.6281     1.4756 C.3     
  16 C16           -2.6316     7.5074     1.0082 C.3     
  17 C17           -2.7527     7.8838     2.4624 C.ar    
  18 C18           -1.6178     8.1934     3.1906 C.ar    
  19 C19           -1.7222     8.5392     4.5223 C.ar    
  20 C20           -2.9752     8.5762     5.1341 C.ar    
  21 C21           -4.1157     8.2630     4.3945 C.ar    
  22 C22           -3.9988     7.9238     3.0621 C.ar    
  23 C23           -1.3031     8.8335    10.8994 C.2     
  24 N24           -2.3421     9.5326    11.3897 N.2     
  25 C25           -3.3269     9.9368    10.6296 C.2     
  26 C26           -3.2988     9.6206     9.2031 C.ar    
  27 C27           -2.2060     8.8863     8.6948 C.ar    
  28 N28           -1.2125     8.5019     9.5747 N.pl3   
  29 C29           -4.3220    10.0254     8.3397 C.ar    
  30 C30           -4.2151     9.6805     6.9961 C.ar    
  31 C31           -3.0942     8.9460     6.5631 C.ar    
  32 N32           -2.1441     8.5803     7.4108 N.ar    
  33 N33           -0.0252     7.7823     9.3928 N.2     
  34 C34            0.5856     7.6757    10.5483 C.2     
  35 C35           -0.1763     8.3118    11.5203 C.2     
  36 C36           -5.2682    10.0808     6.0323 C.ar    
  37 C37           -6.6092     9.8271     6.3160 C.ar    
  38 C38           -7.5852    10.2023     5.4153 C.ar    
  39 C39           -7.2348    10.8287     4.2327 C.ar    
  40 C40           -5.9056    11.0825     3.9457 C.ar    
  41 C41           -4.9215    10.7174     4.8416 C.ar    
  42 C42            1.8976     6.9727    10.7844 C.3     
  43 O43            0.0580    -4.1314    -0.0217 O.3     
  44 H44            2.1496    -0.1375    -0.0195 H       
  45 H45            2.1762    -2.5943    -0.0327 H       
  46 H46           -2.1010    -2.6526     0.0061 H       
  47 H47           -2.1409    -0.1960     0.0317 H       
  48 H48           -2.0275     1.6334     0.0205 H       
  49 H49           -3.5158     5.9766    -0.9209 H       
  50 H50           -1.7443     6.0312    -1.0839 H       
  51 H51           -3.3677     3.6803    -0.0082 H       
  52 H52           -2.6016     3.7710    -1.6130 H       
  53 H53           -0.3790     3.9735    -0.5620 H       
  54 H54           -1.9098     3.6886     2.0655 H       
  55 H55           -0.1407     3.7851     1.8871 H       
  56 H56           -0.3571     6.0392     0.8892 H       
  57 H57           -1.1098     5.9905     2.5013 H       
  58 H58           -1.7696     8.0128     0.5726 H       
  59 H59           -3.5353     7.8087     0.4784 H       
  60 H60           -0.6482     8.1640     2.7159 H       
  61 H61           -0.8356     8.7803     5.0899 H       
  62 H62           -5.0885     8.2896     4.8627 H       
  63 H63           -4.8814     7.6851     2.4874 H       
  64 H64           -4.1492    10.4965    11.0503 H       
  65 H65           -5.1688    10.5876     8.7046 H       
  66 H66            0.0655     8.3883    12.5701 H       
  67 H67           -6.8838     9.3375     7.2386 H       
  68 H68           -8.6245    10.0063     5.6340 H       
  69 H69           -8.0019    11.1202     3.5307 H       
  70 H70           -5.6379    11.5715     3.0207 H       
  71 H71           -3.8844    10.9202     4.6185 H       
  72 H72            2.7169     7.6801    10.6567 H       
  73 H73            1.9180     6.5722    11.7979 H       
  74 H74            2.0067     6.1574    10.0692 H       
  75 H75            0.0716    -4.5297     0.8593 H       
@<TRIPOS>BOND
   1    1    2 1
   2    1    8 2
   3    1    9 am
   4    2    3 ar
   5    2    7 ar
   6    3    4 ar
   7    3   44 1
   8    4    5 ar
   9    4   45 1
  10    5    6 ar
  11    5   43 1
  12    6    7 ar
  13    6   46 1
  14    7   47 1
  15    9   13 1
  16    9   48 1
  17   10   11 1
  18   10   15 1
  19   10   16 1
  20   11   12 1
  21   11   49 1
  22   11   50 1
  23   12   13 1
  24   12   51 1
  25   12   52 1
  26   13   14 1
  27   13   53 1
  28   14   15 1
  29   14   54 1
  30   14   55 1
  31   15   56 1
  32   15   57 1
  33   16   17 1
  34   16   58 1
  35   16   59 1
  36   17   18 ar
  37   17   22 ar
  38   18   19 ar
  39   18   60 1
  40   19   20 ar
  41   19   61 1
  42   20   21 ar
  43   20   31 1
  44   21   22 ar
  45   21   62 1
  46   22   63 1
  47   23   24 1
  48   23   28 1
  49   23   35 2
  50   24   25 2
  51   25   26 1
  52   25   64 1
  53   26   27 ar
  54   26   29 ar
  55   27   28 1
  56   27   32 ar
  57   28   33 1
  58   29   30 ar
  59   29   65 1
  60   30   31 ar
  61   30   36 1
  62   31   32 ar
  63   33   34 2
  64   34   35 1
  65   34   42 1
  66   35   66 1
  67   36   37 ar
  68   36   41 ar
  69   37   38 ar
  70   37   67 1
  71   38   39 ar
  72   38   68 1
  73   39   40 ar
  74   39   69 1
  75   40   41 ar
  76   40   70 1
  77   41   71 1
  78   42   72 1
  79   42   73 1
  80   42   74 1
  81   43   75 1

#	End of record

