#	Name: ASD01148593
#	Creating user name:	WinNT
#	Creation time:	15. 06. 2019 19:02

#	Modifying user name:	WinNT
#	Modification time:	15. 06. 2019 19:02

#	Program:	/corina/corina34_cracker 3.40 0067  02.08.2006

@<TRIPOS>MOLECULE
ASD01148593
  59   62    0    0    0
SMALL
NO_CHARGES


@<TRIPOS>ATOM
   1 C1            -0.0170     1.4375    -0.0252 C.ar    
   2 C2             0.0192     0.0536    -0.0359 C.ar    
   3 C3            -1.1608    -0.6685    -0.0202 C.ar    
   4 C4            -2.3747    -0.0084     0.0061 C.ar    
   5 C5            -2.4108     1.3738     0.0167 C.ar    
   6 C6            -1.2329     2.0967     0.0064 C.ar    
   7 C7            -3.7352     2.0923     0.0449 C.3     
   8 O8            -4.7242     1.3236     0.7592 O.3     
   9 C9            -3.6508     3.3754     0.9055 C.3     
  10 C10           -4.1240     2.8933     2.2637 C.2     
  11 N11           -4.7055     1.7499     2.1071 N.2     
  12 C12           -3.9498     3.6054     3.5412 C.ar    
  13 C13           -4.4567     3.0243     4.7820 C.ar    
  14 C14           -3.2979     4.8303     3.5750 C.ar    
  15 C15           -3.1204     5.5209     4.7608 C.ar    
  16 C16           -3.5866     5.0185     5.9677 C.ar    
  17 C17           -4.2753     3.7306     5.9946 C.ar    
  18 C18           -3.3827     5.7771     7.2154 C.2     
  19 O19           -3.8839     5.3875     8.2526 O.2     
  20 N20           -2.6409     6.9023     7.2064 N.am    
  21 C21           -4.7618     3.1851     7.1894 C.ar    
  22 C22           -5.1152     1.7880     4.7961 C.ar    
  23 C23           -4.2108     2.4136    -1.3734 C.3     
  24 F24           -4.3434     1.2261    -2.1010 F       
  25 F25           -5.4476     3.0648    -1.3141 F       
  26 F26           -3.2764     3.2437    -2.0018 F       
  27 Cl27           1.5442    -0.7751    -0.0694 Cl      
  28 Cl28           1.4627     2.3452    -0.0442 Cl      
  29 C29           -2.4384     7.6561     8.4462 C.3     
  30 C30           -1.5794     8.8622     8.1661 C.2     
  31 N31           -1.2593     9.7083     9.1652 N.am    
  32 O32           -1.1761     9.0716     7.0416 O.2     
  33 C33           -0.4243    10.8808     8.8930 C.3     
  34 C34           -0.2127    11.6680    10.1877 C.3     
  35 F35            0.4217    10.8525    11.1310 F       
  36 F36            0.5847    12.7877     9.9278 F       
  37 F37           -1.4512    12.0836    10.6884 F       
  38 C38           -5.5720     1.2821     5.9767 C.ar    
  39 C39           -5.3984     1.9797     7.1691 C.ar    
  40 C40           -1.1224    -2.1750    -0.0323 C.3     
  41 F41           -2.4289    -2.6749    -0.0127 F       
  42 F42           -0.4718    -2.6156    -1.1898 F       
  43 F43           -0.4309    -2.6329     1.0943 F       
  44 H44           -3.2956    -0.5724     0.0179 H       
  45 H45           -1.2618     3.1763     0.0148 H       
  46 H46           -2.6244     3.7382     0.9597 H       
  47 H47           -4.3149     4.1470     0.5159 H       
  48 H48           -2.9207     5.2534     2.6557 H       
  49 H49           -2.6077     6.4713     4.7469 H       
  50 H50           -2.2412     7.2131     6.3790 H       
  51 H51           -4.6331     3.7160     8.1210 H       
  52 H52           -5.2603     1.2392     3.8774 H       
  53 H53           -3.4033     7.9799     8.8363 H       
  54 H54           -1.9441     7.0207     9.1810 H       
  55 H55           -1.5819     9.5408    10.0646 H       
  56 H56            0.5406    10.5570     8.5029 H       
  57 H57           -0.9186    11.5162     8.1581 H       
  58 H58           -6.0796     0.3289     5.9866 H       
  59 H59           -5.7732     1.5600     8.0910 H       
@<TRIPOS>BOND
   1    1    2 ar
   2    1   28 1
   3    1    6 ar
   4    2    3 ar
   5    2   27 1
   6    3    4 ar
   7    3   40 1
   8    4    5 ar
   9    4   44 1
  10    5    6 ar
  11    5    7 1
  12    6   45 1
  13    7    8 1
  14    7    9 1
  15    7   23 1
  16    8   11 1
  17    9   10 1
  18    9   46 1
  19    9   47 1
  20   10   11 2
  21   10   12 1
  22   12   13 ar
  23   12   14 ar
  24   13   22 ar
  25   13   17 ar
  26   14   15 ar
  27   14   48 1
  28   15   16 ar
  29   15   49 1
  30   16   17 ar
  31   16   18 1
  32   17   21 ar
  33   18   19 2
  34   18   20 am
  35   20   29 1
  36   20   50 1
  37   21   39 ar
  38   21   51 1
  39   22   38 ar
  40   22   52 1
  41   23   24 1
  42   23   25 1
  43   23   26 1
  44   29   30 1
  45   29   53 1
  46   29   54 1
  47   30   32 2
  48   30   31 am
  49   31   33 1
  50   31   55 1
  51   33   34 1
  52   33   56 1
  53   33   57 1
  54   34   35 1
  55   34   36 1
  56   34   37 1
  57   38   39 ar
  58   38   58 1
  59   39   59 1
  60   40   41 1
  61   40   42 1
  62   40   43 1

#	End of record

