#	Name: ASD01140263
#	Creating user name:	WinNT
#	Creation time:	15. 06. 2019 19:00

#	Modifying user name:	WinNT
#	Modification time:	15. 06. 2019 19:00

#	Program:	/corina/corina34_cracker 3.40 0067  02.08.2006

@<TRIPOS>MOLECULE
ASD01140263
  53   56    0    0    0
SMALL
NO_CHARGES


@<TRIPOS>ATOM
   1 C1            -0.0169     1.3929     0.0097 C.ar    
   2 C2             0.0021    -0.0041     0.0020 C.ar    
   3 C3             1.2154    -0.6812    -0.0012 C.ar    
   4 C4             2.4235     0.0270     0.0032 C.ar    
   5 C5             2.3886     1.4232    -0.0128 C.ar    
   6 C6             1.1682     2.0933     0.0021 C.ar    
   7 C7            -1.2279    -0.7374    -0.0021 C.1     
   8 C8             3.6706    -0.7467     0.0560 C.2     
   9 C9             3.6722    -1.9127     0.9537 C.2     
  10 C10            4.7235    -2.7598     1.1482 C.2     
  11 C11            4.4511    -3.7691     2.0446 C.2     
  12 C12            3.2199    -3.7478     2.5645 C.2     
  13 S13            2.3218    -2.4325     1.9526 S.3     
  14 N14            4.7659    -0.5256    -0.5910 N.2     
  15 C15            4.8913     0.5879    -1.5384 C.3     
  16 C16            4.6743     1.8676    -0.7731 C.2     
  17 N17            3.5561     2.1892    -0.0772 N.pl3   
  18 C18            5.5432     2.9069    -0.6396 C.2     
  19 N19            4.9513     3.8286     0.1666 N.2     
  20 C20            3.7725     3.3968     0.5118 C.2     
  21 C21           -2.2362    -1.3386    -0.0055 C.1     
  22 C22            6.8762     3.0134    -1.2538 C.2     
  23 O23            7.2940     2.1157    -1.9588 O.2     
  24 O24            7.6339     4.1064    -1.0345 O.3     
  25 C25            9.6459     5.4505    -1.3101 C.3     
  26 C26            8.9378     4.1434    -1.6723 C.3     
  27 Si27          -3.8682    -2.3117    -0.0110 Si      
  28 C28           -3.5020    -4.1383    -0.0210 C.3     
  29 C29           -4.8514    -1.8838     1.5125 C.3     
  30 C30           -4.8512    -1.8670    -1.5297 C.3     
  31 H31           -0.9585     1.9218     0.0170 H       
  32 H32            1.2268    -1.7611    -0.0067 H       
  33 H33            1.1511     3.1731     0.0079 H       
  34 H34            5.6748    -2.6500     0.6488 H       
  35 H35            5.1785    -4.5227     2.3077 H       
  36 H36            2.8450    -4.4650     3.2797 H       
  37 H37            5.8875     0.5863    -1.9806 H       
  38 H38            4.1387     0.4935    -2.3212 H       
  39 H39            3.0795     3.9125     1.1600 H       
  40 H40            9.7686     5.5096    -0.2287 H       
  41 H41           10.6247     5.4782    -1.7889 H       
  42 H42            9.0487     6.2947    -1.6548 H       
  43 H43            9.5350     3.2991    -1.3277 H       
  44 H44            8.8151     4.0842    -2.7538 H       
  45 H45           -2.9269    -4.3985     0.8676 H       
  46 H46           -4.4382    -4.6965    -0.0241 H       
  47 H47           -2.9268    -4.3887    -0.9123 H       
  48 H48           -5.0657    -0.8150     1.5184 H       
  49 H49           -5.7876    -2.4420     1.5093 H       
  50 H50           -4.2763    -2.1439     2.4011 H       
  51 H51           -4.2759    -2.1174    -2.4211 H       
  52 H52           -5.7874    -2.4252    -1.5329 H       
  53 H53           -5.0654    -0.7983    -1.5239 H       
@<TRIPOS>BOND
   1    1    2 ar
   2    1    6 ar
   3    1   31 1
   4    2    3 ar
   5    2    7 1
   6    3    4 ar
   7    3   32 1
   8    4    5 ar
   9    4    8 1
  10    5    6 ar
  11    5   17 1
  12    6   33 1
  13    7   21 3
  14    8    9 1
  15    8   14 2
  16    9   10 2
  17    9   13 1
  18   10   11 1
  19   10   34 1
  20   11   12 2
  21   11   35 1
  22   12   13 1
  23   12   36 1
  24   14   15 1
  25   15   16 1
  26   15   37 1
  27   15   38 1
  28   16   17 1
  29   16   18 2
  30   17   20 1
  31   18   19 1
  32   18   22 1
  33   19   20 2
  34   20   39 1
  35   21   27 1
  36   22   23 2
  37   22   24 1
  38   24   26 1
  39   25   26 1
  40   25   40 1
  41   25   41 1
  42   25   42 1
  43   26   43 1
  44   26   44 1
  45   27   28 1
  46   27   29 1
  47   27   30 1
  48   28   45 1
  49   28   46 1
  50   28   47 1
  51   29   48 1
  52   29   49 1
  53   29   50 1
  54   30   51 1
  55   30   52 1
  56   30   53 1

#	End of record

