#	Name: ASD04882292
#	Creating user name:	WinNT
#	Creation time:	15. 06. 2019 20:54

#	Modifying user name:	WinNT
#	Modification time:	15. 06. 2019 20:54

#	Program:	/corina/corina34_cracker 3.40 0067  02.08.2006

@<TRIPOS>MOLECULE
ASD04882292
  85   89    0    0    0
SMALL
NO_CHARGES


@<TRIPOS>ATOM
   1 N1            -0.0169     1.3965     0.0097 N.am    
   2 C2             0.1110     0.0023    -0.0345 C.ar    
   3 C3            -1.0256    -0.8073     0.0449 C.ar    
   4 C4            -0.9000    -2.1911     0.0011 C.ar    
   5 C5             0.3440    -2.7692    -0.1212 C.ar    
   6 C6             1.4847    -1.9655    -0.2016 C.ar    
   7 C7             1.3609    -0.5739    -0.1626 C.ar    
   8 N8            -2.2853    -0.2270     0.1686 N.3     
   9 C9            -3.1509    -0.6024    -0.9581 C.3     
  10 C10           -2.9077    -0.5875     1.4501 C.3     
  11 C11           -4.2521     0.1319     1.5814 C.3     
  12 N12           -5.1178    -0.2434     0.4548 N.3     
  13 C13           -4.4954     0.1171    -0.8267 C.3     
  14 C14            2.8172    -2.5852    -0.3320 C.2     
  15 O15            3.8090    -1.8852    -0.4018 O.2     
  16 C16            0.9202     2.1777    -0.5630 C.2     
  17 C17            0.7419     3.6387    -0.5939 C.2     
  18 O18            1.9133     1.6756    -1.0542 O.2     
  19 S19           -0.6323     4.5167     0.0707 S.3     
  20 N20            1.5798     4.4948    -1.1137 N.2     
  21 C21            1.2321     5.7525    -1.0369 C.2     
  22 C22            0.0598     5.9984    -0.4313 C.2     
  23 N23            2.9351    -3.9271    -0.3736 N.am    
  24 C24           -6.3814     0.3386     0.5788 C.ar    
  25 C25           -6.5097     1.7209     0.6233 C.ar    
  26 C26           -7.5133    -0.4636     0.6522 C.ar    
  27 C27           -8.7610     0.1151     0.7749 C.ar    
  28 C28           -8.8847     1.4917     0.8242 C.ar    
  29 C29           -7.7607     2.2932     0.7460 C.ar    
  30 C30           -7.3796    -1.9637     0.5976 C.3     
  31 C31            2.0947     6.8572    -1.5908 C.3     
  32 C32            4.2583    -4.5424    -0.5031 C.3     
  33 C33            4.1125    -6.0653    -0.5261 C.3     
  34 C34            5.4944    -6.7079    -0.6613 C.3     
  35 N35            5.3548    -8.1661    -0.6833 N.am    
  36 C36            5.1710    -8.9621    -1.9025 C.3     
  37 C37            4.6448   -10.3335    -1.4240 C.3     
  38 C38            5.1967   -10.3968     0.0191 C.3     
  39 C39            5.3844    -8.9474     0.4101 C.2     
  40 O40            5.5326    -8.5479     1.5456 O.2     
  41 C41            2.7883     7.5885    -0.4397 C.3     
  42 C42            3.1493     6.2609    -2.5252 C.3     
  43 C43            1.2223     7.8436    -2.3698 C.3     
  44 H44           -0.7820     1.7996     0.4491 H       
  45 H45           -1.7799    -2.8142     0.0634 H       
  46 H46            0.4382    -3.8446    -0.1546 H       
  47 H47            2.2405     0.0497    -0.2245 H       
  48 H48           -2.6741    -0.3139    -1.8949 H       
  49 H49           -3.3128    -1.6802    -0.9489 H       
  50 H50           -3.0668    -1.6652     1.4866 H       
  51 H51           -2.2535    -0.2882     2.2690 H       
  52 H52           -4.7289    -0.1566     2.5182 H       
  53 H53           -4.0902     1.2098     1.5723 H       
  54 H54           -4.3362     1.1948    -0.8633 H       
  55 H55           -5.1495    -0.1822    -1.6457 H       
  56 H56           -0.3762     6.9753    -0.2836 H       
  57 H57            2.1439    -4.4855    -0.3179 H       
  58 H58           -5.6321     2.3475     0.5623 H       
  59 H59           -9.6413    -0.5080     0.8320 H       
  60 H60           -9.8618     1.9418     0.9194 H       
  61 H61           -7.8608     3.3678     0.7849 H       
  62 H62           -7.2600    -2.3548     1.6080 H       
  63 H63           -8.2742    -2.3920     0.1457 H       
  64 H64           -6.5077    -2.2292    -0.0003 H       
  65 H65            4.7254    -4.2082    -1.4295 H       
  66 H66            4.8796    -4.2496     0.3433 H       
  67 H67            3.6454    -6.3996     0.4003 H       
  68 H68            3.4913    -6.3581    -1.3725 H       
  69 H69            5.9615    -6.3737    -1.5877 H       
  70 H70            6.1157    -6.4151     0.1851 H       
  71 H71            4.4414    -8.4858    -2.5575 H       
  72 H72            6.1221    -9.0830    -2.4210 H       
  73 H73            3.5551   -10.3555    -1.4262 H       
  74 H74            5.0511   -11.1412    -2.0328 H       
  75 H75            4.4800   -10.8835     0.6806 H       
  76 H76            6.1526   -10.9202     0.0393 H       
  77 H77            3.4098     6.8857     0.1153 H       
  78 H78            3.4122     8.3875    -0.8403 H       
  79 H79            2.0369     8.0133     0.2260 H       
  80 H80            2.6553     5.7399    -3.3453 H       
  81 H81            3.7733     7.0599    -2.9258 H       
  82 H82            3.7708     5.5582    -1.9703 H       
  83 H83            0.4710     8.2684    -1.7041 H       
  84 H84            1.8463     8.6426    -2.7703 H       
  85 H85            0.7283     7.3226    -3.1898 H       
@<TRIPOS>BOND
   1    1    2 1
   2    1   16 am
   3    1   44 1
   4    2    3 ar
   5    2    7 ar
   6    3    4 ar
   7    3    8 1
   8    4    5 ar
   9    4   45 1
  10    5    6 ar
  11    5   46 1
  12    6    7 ar
  13    6   14 1
  14    7   47 1
  15    8    9 1
  16    8   10 1
  17    9   13 1
  18    9   48 1
  19    9   49 1
  20   10   11 1
  21   10   50 1
  22   10   51 1
  23   11   12 1
  24   11   52 1
  25   11   53 1
  26   12   13 1
  27   12   24 1
  28   13   54 1
  29   13   55 1
  30   14   15 2
  31   14   23 am
  32   16   18 2
  33   16   17 1
  34   17   19 1
  35   17   20 2
  36   19   22 1
  37   20   21 1
  38   21   22 2
  39   21   31 1
  40   22   56 1
  41   23   32 1
  42   23   57 1
  43   24   25 ar
  44   24   26 ar
  45   25   29 ar
  46   25   58 1
  47   26   27 ar
  48   26   30 1
  49   27   28 ar
  50   27   59 1
  51   28   29 ar
  52   28   60 1
  53   29   61 1
  54   30   62 1
  55   30   63 1
  56   30   64 1
  57   31   41 1
  58   31   42 1
  59   31   43 1
  60   32   33 1
  61   32   65 1
  62   32   66 1
  63   33   34 1
  64   33   67 1
  65   33   68 1
  66   34   35 1
  67   34   69 1
  68   34   70 1
  69   35   36 1
  70   35   39 am
  71   36   37 1
  72   36   71 1
  73   36   72 1
  74   37   38 1
  75   37   73 1
  76   37   74 1
  77   38   39 1
  78   38   75 1
  79   38   76 1
  80   39   40 2
  81   41   77 1
  82   41   78 1
  83   41   79 1
  84   42   80 1
  85   42   81 1
  86   42   82 1
  87   43   83 1
  88   43   84 1
  89   43   85 1

#	End of record

