#	Name: ASD00841000
#	Creating user name:	WinNT
#	Creation time:	15. 06. 2019 18:40

#	Modifying user name:	WinNT
#	Modification time:	15. 06. 2019 18:40

#	Program:	/corina/corina34_cracker 3.40 0067  02.08.2006

@<TRIPOS>MOLECULE
ASD00841000
  89   94    0    0    0
SMALL
NO_CHARGES


@<TRIPOS>ATOM
   1 N1            -0.0159     1.3183     0.0093 N.ar    
   2 C2             0.0021    -0.0041     0.0020 C.ar    
   3 C3             1.2069    -0.6955    -0.0132 C.ar    
   4 C4             2.3925     0.0180    -0.0207 C.ar    
   5 C5             2.3308     1.4049    -0.0127 C.ar    
   6 C6             1.0980     2.0259     0.0025 C.ar    
   7 C7             1.2224    -2.2024    -0.0209 C.3     
   8 C8             0.4763    -2.7343    -1.2260 C.2     
   9 O9             2.5880    -2.6958    -0.0096 O.3     
  10 C10            3.3814    -2.3221    -1.0311 C.2     
  11 N11            4.6601    -2.7453    -1.0809 N.am    
  12 O12            2.9448    -1.6033    -1.9081 O.2     
  13 C13            5.5439    -2.3489    -2.1877 C.3     
  14 C14            6.8407    -1.7853    -1.5972 C.3     
  15 N15            7.4151    -2.7628    -0.6632 N.3     
  16 C16            6.5187    -3.0023     0.4756 C.3     
  17 C17            5.2104    -3.6108    -0.0267 C.3     
  18 C18            8.7444    -2.3362    -0.2062 C.3     
  19 C19            9.2575    -3.3115     0.8568 C.3     
  20 C20           10.6671    -2.8969     1.2847 C.3     
  21 N21           11.5570    -2.9054     0.1166 N.3     
  22 C22           11.1109    -1.9419    -0.8978 C.3     
  23 C23            9.7146    -2.3281    -1.3909 C.3     
  24 H24           12.5123    -2.7279     0.3886 H       
  25 O25            0.7557    -2.5393    -2.3900 O.2     
  26 N26           -0.5539    -3.4626    -0.7638 N.am    
  27 C27            0.4501    -2.7460     1.1591 C.ar    
  28 C28           -0.5980    -3.4898     0.6311 C.ar    
  29 C29            0.6149    -2.6258     2.5206 C.ar    
  30 C30           -0.2710    -3.2513     3.3818 C.ar    
  31 C31           -1.3206    -3.9961     2.8679 C.ar    
  32 C32           -1.4864    -4.1171     1.5014 C.ar    
  33 Cl33          -0.0671    -3.1033     5.0994 Cl      
  34 F34           -2.1857    -4.6069     3.7068 F       
  35 C35           -1.0174    -5.8570    -2.0393 C.ar    
  36 C36            0.1607    -6.0209    -2.7538 C.ar    
  37 C37           -1.6952    -6.9616    -1.5594 C.ar    
  38 C38           -1.2018    -8.2313    -1.7893 C.ar    
  39 C39           -0.0238    -8.4005    -2.5035 C.ar    
  40 C40            0.6577    -7.2942    -2.9862 C.ar    
  41 O41            0.4609    -9.6498    -2.7297 O.3     
  42 O42            0.8265    -4.9343    -3.2257 O.3     
  43 C43           -0.2935   -10.7435    -2.2035 C.3     
  44 C44            2.0325    -5.1777    -3.9527 C.3     
  45 C45            2.6359    -3.8449    -4.4005 C.3     
  46 S46           -1.6459    -4.2388    -1.7372 S.o2    
  47 O47           -2.8262    -4.4047    -0.9636 O.2     
  48 O48           -1.6238    -3.5603    -2.9856 O.2     
  49 O49           -1.1673    -0.6919     0.0099 O.3     
  50 C50           -3.5777    -0.8652     0.0330 C.3     
  51 C51           -2.3720     0.0766     0.0260 C.3     
  52 H52            3.3442    -0.4925    -0.0322 H       
  53 H53            3.2375     1.9916    -0.0178 H       
  54 H54            1.0444     3.1046     0.0084 H       
  55 H55            5.7701    -3.2183    -2.8050 H       
  56 H56            5.0542    -1.5850    -2.7917 H       
  57 H57            7.5509    -1.5888    -2.4004 H       
  58 H58            6.6257    -0.8579    -1.0664 H       
  59 H59            6.9953    -3.6884     1.1757 H       
  60 H60            6.3082    -2.0579     0.9776 H       
  61 H61            4.5004    -3.6838     0.7971 H       
  62 H62            5.4017    -4.6020    -0.4378 H       
  63 H63            8.6793    -1.3348     0.2193 H       
  64 H64            8.5937    -3.2900     1.7211 H       
  65 H65            9.2846    -4.3196     0.4430 H       
  66 H66           10.6370    -1.8942     1.7110 H       
  67 H67           11.0409    -3.5977     2.0312 H       
  68 H68           11.0788    -0.9437    -0.4613 H       
  69 H69           11.8071    -1.9491    -1.7365 H       
  70 H70            9.7488    -3.3206    -1.8400 H       
  71 H71            9.3773    -1.6039    -2.1324 H       
  72 H72            1.4345    -2.0447     2.9166 H       
  73 H73           -2.3067    -4.6987     1.1074 H       
  74 H74           -2.6121    -6.8320    -1.0035 H       
  75 H75           -1.7329    -9.0930    -1.4127 H       
  76 H76            1.5743    -7.4238    -3.5424 H       
  77 H77            0.2025   -11.6811    -2.4545 H       
  78 H78           -0.3638   -10.6483    -1.1199 H       
  79 H79           -1.2945   -10.7352    -2.6346 H       
  80 H80            2.7428    -5.7015    -3.3132 H       
  81 H81            1.8120    -5.7890    -4.8278 H       
  82 H82            3.5557    -4.0306    -4.9551 H       
  83 H83            1.9255    -3.3211    -5.0401 H       
  84 H84            2.8563    -3.2336    -3.5254 H       
  85 H85           -4.4966    -0.2790     0.0452 H       
  86 H86           -3.5566    -1.4891    -0.8606 H       
  87 H87           -3.5390    -1.4986     0.9192 H       
  88 H88           -2.3931     0.7004     0.9196 H       
  89 H89           -2.4108     0.7099    -0.8602 H       
@<TRIPOS>BOND
   1    1    2 ar
   2    1    6 ar
   3    2    3 ar
   4    2   49 1
   5    3    4 ar
   6    3    7 1
   7    4    5 ar
   8    4   52 1
   9    5    6 ar
  10    5   53 1
  11    6   54 1
  12    7    8 1
  13    7    9 1
  14    7   27 1
  15    8   25 2
  16    8   26 am
  17    9   10 1
  18   10   11 am
  19   10   12 2
  20   11   13 1
  21   11   17 1
  22   13   14 1
  23   13   55 1
  24   13   56 1
  25   14   15 1
  26   14   57 1
  27   14   58 1
  28   15   16 1
  29   15   18 1
  30   16   17 1
  31   16   59 1
  32   16   60 1
  33   17   61 1
  34   17   62 1
  35   18   19 1
  36   18   23 1
  37   18   63 1
  38   19   20 1
  39   19   64 1
  40   19   65 1
  41   20   21 1
  42   20   66 1
  43   20   67 1
  44   21   22 1
  45   21   24 1
  46   22   23 1
  47   22   68 1
  48   22   69 1
  49   23   70 1
  50   23   71 1
  51   26   46 am
  52   26   28 1
  53   27   28 ar
  54   27   29 ar
  55   28   32 ar
  56   29   30 ar
  57   29   72 1
  58   30   31 ar
  59   30   33 1
  60   31   32 ar
  61   31   34 1
  62   32   73 1
  63   35   36 ar
  64   35   37 ar
  65   35   46 1
  66   36   42 1
  67   36   40 ar
  68   37   38 ar
  69   37   74 1
  70   38   39 ar
  71   38   75 1
  72   39   40 ar
  73   39   41 1
  74   40   76 1
  75   41   43 1
  76   42   44 1
  77   43   77 1
  78   43   78 1
  79   43   79 1
  80   44   45 1
  81   44   80 1
  82   44   81 1
  83   45   82 1
  84   45   83 1
  85   45   84 1
  86   46   47 2
  87   46   48 2
  88   49   51 1
  89   50   51 1
  90   50   85 1
  91   50   86 1
  92   50   87 1
  93   51   88 1
  94   51   89 1

#	End of record

