#	Name: ASD01890317
#	Creating user name:	WinNT
#	Creation time:	15. 06. 2019 19:50

#	Modifying user name:	WinNT
#	Modification time:	15. 06. 2019 19:50

#	Program:	/corina/corina34_cracker 3.40 0067  02.08.2006

@<TRIPOS>MOLECULE
ASD01890317
  28   29    0    0    0
SMALL
NO_CHARGES


@<TRIPOS>ATOM
   1 C1            -0.0184     1.5028     0.0103 C.2     
   2 C2             0.0021    -0.0041     0.0020 C.3     
   3 C3             1.2460     2.2559     0.0023 C.ar    
   4 C4             1.2312     3.6543     0.0099 C.ar    
   5 C5             2.4201     4.3527     0.0028 C.ar    
   6 C6             3.6259     3.6734    -0.0119 C.ar    
   7 C7             3.6488     2.2896    -0.0200 C.ar    
   8 C8             2.4685     1.5768    -0.0072 C.ar    
   9 O9            -1.3386    -0.4987     0.0122 O.3     
  10 C10           -1.4983    -1.8485     0.0064 C.ar    
  11 C11           -2.7725    -2.3970     0.0157 C.ar    
  12 C12           -2.9328    -3.7691     0.0093 C.ar    
  13 C13           -1.8236    -4.5961    -0.0062 C.ar    
  14 C14           -0.5520    -4.0509    -0.0154 C.ar    
  15 C15           -0.3876    -2.6792    -0.0144 C.ar    
  16 Cl16          -2.0277    -6.3201    -0.0135 Cl      
  17 O17           -1.0766     2.0947     0.0185 O.2     
  18 H18            0.5123    -0.3556    -0.8948 H       
  19 H19            0.5293    -0.3651     0.8851 H       
  20 H20            0.2911     4.1858     0.0210 H       
  21 H21            2.4103     5.4327     0.0083 H       
  22 H22            4.5537     4.2261    -0.0174 H       
  23 H23            4.5937     1.7667    -0.0321 H       
  24 H24            2.4881     0.4970    -0.0087 H       
  25 H25           -3.6385    -1.7518     0.0281 H       
  26 H26           -3.9246    -4.1966     0.0169 H       
  27 H27            0.3126    -4.6980    -0.0275 H       
  28 H28            0.6051    -2.2540    -0.0257 H       
@<TRIPOS>BOND
   1    1    2 1
   2    1    3 1
   3    1   17 2
   4    2    9 1
   5    2   18 1
   6    2   19 1
   7    3    4 ar
   8    3    8 ar
   9    4    5 ar
  10    4   20 1
  11    5    6 ar
  12    5   21 1
  13    6    7 ar
  14    6   22 1
  15    7    8 ar
  16    7   23 1
  17    8   24 1
  18    9   10 1
  19   10   11 ar
  20   10   15 ar
  21   11   12 ar
  22   11   25 1
  23   12   13 ar
  24   12   26 1
  25   13   14 ar
  26   13   16 1
  27   14   15 ar
  28   14   27 1
  29   15   28 1

#	End of record

