#	Name: ASD05720082
#	Creating user name:	WinNT
#	Creation time:	15. 06. 2019 21:01

#	Modifying user name:	WinNT
#	Modification time:	15. 06. 2019 21:01

#	Program:	/corina/corina34_cracker 3.40 0067  02.08.2006

@<TRIPOS>MOLECULE
ASD05720082
  64   67    0    0    0
SMALL
NO_CHARGES


@<TRIPOS>ATOM
   1 O1             1.8956     1.4223     0.9951 O.3     
   2 C2             2.2583     0.1845     0.6410 C.2     
   3 N3             1.2791    -0.7225     0.7610 N.am    
   4 C4             0.0689    -0.0529     1.2617 C.3     
   5 C5             0.5017     1.4176     1.4191 C.3     
   6 O6             3.3735    -0.0923     0.2461 O.2     
   7 S7             0.7147    -0.9109     3.9057 S.3     
   8 C8            -0.3427    -0.6288     2.5921 C.2     
   9 N9            -1.5442    -0.9803     2.9047 N.2     
  10 C10           -1.7320    -1.4676     4.1146 C.2     
  11 C11           -0.6276    -1.5306     4.8644 C.2     
  12 C12           -3.0818    -1.9166     4.6122 C.3     
  13 C13            2.6817    -3.8794    -0.1718 C.2     
  14 N14            2.5585    -2.5808     0.1196 N.2     
  15 C15            1.3888    -2.0739     0.4610 C.2     
  16 C16            0.2507    -2.9036     0.5216 C.2     
  17 C17            0.3718    -4.2181     0.2273 C.2     
  18 N18            1.5967    -4.7141    -0.1230 N.pl3   
  19 N19            2.0258    -5.9990    -0.4742 N.2     
  20 C20            3.3108    -5.9714    -0.7296 C.2     
  21 C21            3.7772    -4.6620    -0.5607 C.2     
  22 C22            5.1674    -4.1927    -0.7549 C.ar    
  23 C23            6.2133    -4.8022    -0.0600 C.ar    
  24 C24            7.5084    -4.3640    -0.2415 C.ar    
  25 C25            7.7719    -3.3107    -1.1208 C.ar    
  26 C26            6.7259    -2.7030    -1.8142 C.ar    
  27 C27            5.4333    -3.1441    -1.6373 C.ar    
  28 N28           10.9322    -1.7511    -1.9910 N.pl3   
  29 N29            9.5374    -1.8606    -2.1127 N.2     
  30 C30            9.1639    -2.8388    -1.3163 C.2     
  31 N31           10.2504    -3.3379    -0.7109 N.2     
  32 C32           11.3144    -2.6921    -1.1093 C.2     
  33 F33            8.5216    -4.9528     0.4307 F       
  34 H34           -0.7425    -0.1379     0.5390 H       
  35 H35            0.4178     1.7314     2.4596 H       
  36 H36           -0.0958     2.0628     0.7750 H       
  37 H37           -0.5682    -1.8967     5.8787 H       
  38 H38           -3.2576    -2.9476     4.3054 H       
  39 H39           -3.1081    -1.8516     5.6999 H       
  40 H40           -3.8560    -1.2752     4.1911 H       
  41 H41           -0.7086    -2.4936     0.8008 H       
  42 H42           -0.4893    -4.8686     0.2689 H       
  43 H43            3.9111    -6.8192    -1.0252 H       
  44 H44            6.0085    -5.6161     0.6198 H       
  45 H45            6.9300    -1.8888    -2.4938 H       
  46 H46            4.6244    -2.6756    -2.1782 H       
  47 H47           11.5075    -1.1229    -2.4550 H       
  48 H48           12.3273    -2.8816    -0.7859 H       
  49 C49           18.4987     9.0510    12.0255 C.2     
  50 C50           18.5192     7.5442    12.0172 C.3     
  51 O51           19.5368     9.6693    12.0189 O.2     
  52 O52           17.3273     9.7063    12.0346 O.3     
  53 F53           19.8443     7.0959    12.0022 F       
  54 F54           17.8770     7.0628    13.1631 F       
  55 F55           17.8552     7.0751    10.8787 F       
  56 H56           17.3648    10.6726    12.0397 H       
  57 C57           26.0157    17.6608    19.3099 C.2     
  58 C58           26.0362    16.1540    19.3017 C.3     
  59 O59           27.0538    18.2791    19.3034 O.2     
  60 O60           24.8443    18.3161    19.3191 O.3     
  61 F61           27.3613    15.7056    19.2866 F       
  62 F62           25.3940    15.6726    20.4476 F       
  63 F63           25.3722    15.6848    18.1631 F       
  64 H64           24.8818    19.2823    19.3241 H       
@<TRIPOS>BOND
   1    1    2 1
   2    1    5 1
   3    2    3 am
   4    2    6 2
   5    3    4 1
   6    3   15 1
   7    4    5 1
   8    4    8 1
   9    4   34 1
  10    5   35 1
  11    5   36 1
  12    7    8 1
  13    7   11 1
  14    8    9 2
  15    9   10 1
  16   10   11 2
  17   10   12 1
  18   11   37 1
  19   12   38 1
  20   12   39 1
  21   12   40 1
  22   13   14 1
  23   13   18 1
  24   13   21 2
  25   14   15 2
  26   15   16 1
  27   16   17 2
  28   16   41 1
  29   17   18 1
  30   17   42 1
  31   18   19 1
  32   19   20 2
  33   20   21 1
  34   20   43 1
  35   21   22 1
  36   22   23 ar
  37   22   27 ar
  38   23   24 ar
  39   23   44 1
  40   24   25 ar
  41   24   33 1
  42   25   26 ar
  43   25   30 1
  44   26   27 ar
  45   26   45 1
  46   27   46 1
  47   28   29 1
  48   28   32 1
  49   28   47 1
  50   29   30 2
  51   30   31 1
  52   31   32 2
  53   32   48 1
  54   49   50 1
  55   49   51 2
  56   49   52 1
  57   50   53 1
  58   50   54 1
  59   50   55 1
  60   52   56 1
  61   57   58 1
  62   57   59 2
  63   57   60 1
  64   58   61 1
  65   58   62 1
  66   58   63 1
  67   60   64 1

#	End of record

