#	Name: ASD01911937
#	Creating user name:	WinNT
#	Creation time:	15. 06. 2019 19:58

#	Modifying user name:	WinNT
#	Modification time:	15. 06. 2019 19:58

#	Program:	/corina/corina34_cracker 3.40 0067  02.08.2006

@<TRIPOS>MOLECULE
ASD01911937
  34   36    0    0    0
SMALL
NO_CHARGES


@<TRIPOS>ATOM
   1 C1             0.4121     0.1145    -1.8765 C.ar    
   2 C2            -0.0792     0.0132    -0.5789 C.ar    
   3 C3             0.6071     0.6678     0.4388 C.ar    
   4 N4             1.6948     1.3583     0.1387 N.ar    
   5 C5             2.1288     1.4304    -1.1036 C.ar    
   6 N6             1.5066     0.8245    -2.0949 N.ar    
   7 O7            -1.2010    -0.7063    -0.3125 O.3     
   8 C8            -1.0956    -2.0609    -0.2713 C.ar    
   9 C9            -2.2178    -2.8378    -0.0122 C.ar    
  10 C10           -2.1106    -4.2182     0.0303 C.ar    
  11 C11           -0.8856    -4.8253    -0.1853 C.ar    
  12 C12            0.2376    -4.0513    -0.4444 C.ar    
  13 C13            0.1304    -2.6679    -0.4934 C.ar    
  14 N14            1.4759    -4.6654    -0.6614 N.am    
  15 C15            1.5341    -5.8724    -1.2582 C.2     
  16 C16            2.8341    -6.5694    -1.3944 C.ar    
  17 O17            0.5201    -6.3890    -1.6847 O.2     
  18 C18            2.8875    -7.8162    -2.0120 C.ar    
  19 F19           -3.2026    -4.9725     0.2828 F       
  20 C20            4.1129    -8.4564    -2.1325 C.ar    
  21 C21            5.2411    -7.8247    -1.6299 C.ar    
  22 C22            5.1127    -6.5838    -1.0276 C.ar    
  23 N23            3.9393    -5.9975    -0.9314 N.ar    
  24 F24           -3.4142    -2.2467     0.1988 F       
  25 Cl25           4.2310   -10.0120    -2.8940 Cl      
  26 H26           -0.0902    -0.3831    -2.6930 H       
  27 H27            0.2569     0.6133     1.4590 H       
  28 H28            3.0199     2.0027    -1.3154 H       
  29 H29           -0.8034    -5.9016    -0.1515 H       
  30 H30            1.0035    -2.0649    -0.6949 H       
  31 H31            2.2925    -4.2225    -0.3823 H       
  32 H32            1.9882    -8.2785    -2.3915 H       
  33 H33            6.2099    -8.2958    -1.7071 H       
  34 H34            5.9889    -6.0891    -0.6352 H       
@<TRIPOS>BOND
   1    1    2 ar
   2    1    6 ar
   3    1   26 1
   4    2    3 ar
   5    2    7 1
   6    3    4 ar
   7    3   27 1
   8    4    5 ar
   9    5    6 ar
  10    5   28 1
  11    7    8 1
  12    8    9 ar
  13    8   13 ar
  14    9   10 ar
  15    9   24 1
  16   10   11 ar
  17   10   19 1
  18   11   12 ar
  19   11   29 1
  20   12   13 ar
  21   12   14 1
  22   13   30 1
  23   14   15 am
  24   14   31 1
  25   15   16 1
  26   15   17 2
  27   16   18 ar
  28   16   23 ar
  29   18   20 ar
  30   18   32 1
  31   20   21 ar
  32   20   25 1
  33   21   22 ar
  34   21   33 1
  35   22   23 ar
  36   22   34 1

#	End of record

