#	Name: ASD01810692
#	Creating user name:	WinNT
#	Creation time:	15. 06. 2019 19:25

#	Modifying user name:	WinNT
#	Modification time:	15. 06. 2019 19:25

#	Program:	/corina/corina34_cracker 3.40 0067  02.08.2006

@<TRIPOS>MOLECULE
ASD01810692
  38   40    0    0    0
SMALL
NO_CHARGES


@<TRIPOS>ATOM
   1 N1            -0.0148     1.2909    -0.1197 N.pl3   
   2 N2             0.0045     0.0255    -0.3110 N.2     
   3 C3             1.1021    -0.6840    -0.4560 C.2     
   4 C4             2.4120    -0.0080    -0.3997 C.2     
   5 C5             2.3824     1.4499    -0.1791 C.ar    
   6 C6             3.5454     2.2117    -0.1043 C.ar    
   7 C7             3.4558     3.5611     0.1024 C.ar    
   8 C8             2.2170     4.1727     0.2380 C.ar    
   9 C9             1.0536     3.4362     0.1675 C.ar    
  10 C10            1.1205     2.0603    -0.0433 C.ar    
  11 C11            1.0244    -2.1391    -0.6720 C.2     
  12 O12            2.0427    -2.7888    -0.8052 O.2     
  13 O13           -0.1760    -2.7499    -0.7218 O.3     
  14 O14            3.4584    -0.6191    -0.5278 O.2     
  15 Cl15          -0.4863     4.2186     0.3406 Cl      
  16 C16           -1.3141     1.9534     0.0188 C.3     
  17 C17           -2.8971     0.2832     1.0156 C.ar    
  18 C18           -2.4148     0.9315    -0.1055 C.ar    
  19 C19           -2.9562     0.6306    -1.3460 C.ar    
  20 C20           -3.9673    -0.3155    -1.4129 C.ar    
  21 C21           -4.3992    -0.9236    -0.2482 C.ar    
  22 N22           -3.8603    -0.6119     0.9153 N.ar    
  23 Br23          -5.7780    -2.2156    -0.3239 Br      
  24 C24           -0.1766    -4.1857    -0.9376 C.3     
  25 C25           -1.6185    -4.6969    -0.9640 C.3     
  26 H26            4.5116     1.7406    -0.2085 H       
  27 H27            4.3559     4.1551     0.1609 H       
  28 H28            2.1638     5.2390     0.4011 H       
  29 H29           -1.3741     2.4352     0.9947 H       
  30 H30           -1.4248     2.7036    -0.7642 H       
  31 H31           -2.4773     0.5090     1.9847 H       
  32 H32           -2.5990     1.1219    -2.2389 H       
  33 H33           -4.4122    -0.5742    -2.3624 H       
  34 H34            0.3060    -4.4104    -1.8887 H       
  35 H35            0.3675    -4.6748    -0.1296 H       
  36 H36           -1.6190    -5.7748    -1.1259 H       
  37 H37           -2.1011    -4.4722    -0.0128 H       
  38 H38           -2.1626    -4.2078    -1.7719 H       
@<TRIPOS>BOND
   1    1    2 1
   2    1   10 1
   3    1   16 1
   4    2    3 2
   5    3    4 1
   6    3   11 1
   7    4    5 1
   8    4   14 2
   9    5    6 ar
  10    5   10 ar
  11    6    7 ar
  12    6   26 1
  13    7    8 ar
  14    7   27 1
  15    8    9 ar
  16    8   28 1
  17    9   10 ar
  18    9   15 1
  19   11   12 2
  20   11   13 1
  21   13   24 1
  22   16   18 1
  23   16   29 1
  24   16   30 1
  25   17   18 ar
  26   17   22 ar
  27   17   31 1
  28   18   19 ar
  29   19   20 ar
  30   19   32 1
  31   20   21 ar
  32   20   33 1
  33   21   22 ar
  34   21   23 1
  35   24   25 1
  36   24   34 1
  37   24   35 1
  38   25   36 1
  39   25   37 1
  40   25   38 1

#	End of record

