#	Name: ASD01883476
#	Creating user name:	WinNT
#	Creation time:	15. 06. 2019 19:46

#	Modifying user name:	WinNT
#	Modification time:	15. 06. 2019 19:46

#	Program:	/corina/corina34_cracker 3.40 0067  02.08.2006

@<TRIPOS>MOLECULE
ASD01883476
  58   61    0    0    0
SMALL
NO_CHARGES


@<TRIPOS>ATOM
   1 N1            -0.0080     1.3271     0.0354 N.am    
   2 C2            -0.3623     0.6471    -1.0708 C.2     
   3 C3            -1.5938    -0.0487    -1.1070 C.2     
   4 C4            -2.4239    -0.0108     0.0261 C.2     
   5 C5            -1.9981     0.7175     1.1524 C.2     
   6 C6            -0.8092     1.3586     1.1319 C.2     
   7 O7             0.3768     0.6309    -2.0406 O.2     
   8 C8            -1.9868    -0.7769    -2.2757 C.1     
   9 N9            -2.2985    -1.3546    -3.2029 N.1     
  10 N10           -3.6309    -0.6732     0.0341 N.pl3   
  11 C11           -4.8919     0.0702     0.1608 C.3     
  12 C12           -5.6944    -0.5155     1.3268 C.3     
  13 C13           -5.8708    -2.0207     1.1144 C.3     
  14 C14           -4.4985    -2.6976     1.0843 C.3     
  15 C15           -3.6827    -2.1362    -0.0901 C.3     
  16 C16            1.2701     2.0427     0.0594 C.3     
  17 C17            1.0676     3.4497    -0.4412 C.ar    
  18 C18            0.7492     4.4594     0.4480 C.ar    
  19 C19            0.5630     5.7500    -0.0084 C.ar    
  20 C20            0.6959     6.0324    -1.3601 C.ar    
  21 C21            1.0154     5.0174    -2.2503 C.ar    
  22 C22            1.2061     3.7296    -1.7881 C.ar    
  23 C23           -6.6890    -2.5945     2.2424 C.ar    
  24 C24           -6.6421    -2.0253     3.5006 C.ar    
  25 N25           -7.3553    -2.5218     4.4927 N.ar    
  26 C26           -8.1360    -3.5716     4.3278 C.ar    
  27 C27           -8.2341    -4.1934     3.0972 C.ar    
  28 C28           -7.5029    -3.6969     2.0293 C.ar    
  29 C29           -8.9300    -4.0999     5.4947 C.3     
  30 O30           -6.5425    -2.2510    -0.1257 O.3     
  31 O31            0.5128     7.3010    -1.8116 O.3     
  32 C32            0.6655     7.5183    -3.2157 C.3     
  33 F33           -0.2603     6.7342    -3.9123 F       
  34 F34            0.4441     8.8690    -3.5054 F       
  35 F35            1.9621     7.1646    -3.6041 F       
  36 H36           -2.6200     0.7608     2.0343 H       
  37 H37           -0.4930     1.9144     2.0022 H       
  38 H38           -4.6785     1.1212     0.3555 H       
  39 H39           -5.4656    -0.0236    -0.7613 H       
  40 H40           -5.1602    -0.3399     2.2606 H       
  41 H41           -6.6729    -0.0373     1.3715 H       
  42 H42           -3.9756    -2.5016     2.0204 H       
  43 H43           -4.6258    -3.7726     0.9564 H       
  44 H44           -4.1593    -2.4118    -1.0309 H       
  45 H45           -2.6709    -2.5405    -0.0585 H       
  46 H46            1.6512     2.0716     1.0802 H       
  47 H47            1.9865     1.5287    -0.5814 H       
  48 H48            0.6455     4.2390     1.5002 H       
  49 H49            0.3140     6.5383     0.6865 H       
  50 H50            1.1194     5.2347    -3.3031 H       
  51 H51            1.4549     2.9391    -2.4806 H       
  52 H52           -6.0139    -1.1641     3.6738 H       
  53 H53           -8.8750    -5.0531     2.9685 H       
  54 H54           -7.5598    -4.1622     1.0563 H       
  55 H55           -9.9019    -3.6075     5.5255 H       
  56 H56           -9.0707    -5.1748     5.3815 H       
  57 H57           -8.3916    -3.8994     6.4210 H       
  58 H58           -6.6886    -3.1857    -0.3262 H       
@<TRIPOS>BOND
   1    1    2 am
   2    1   16 1
   3    1    6 1
   4    2    3 1
   5    2    7 2
   6    3    4 2
   7    3    8 1
   8    4    5 1
   9    4   10 1
  10    5    6 2
  11    5   36 1
  12    6   37 1
  13    8    9 3
  14   10   11 1
  15   10   15 1
  16   11   12 1
  17   11   38 1
  18   11   39 1
  19   12   13 1
  20   12   40 1
  21   12   41 1
  22   13   14 1
  23   13   23 1
  24   13   30 1
  25   14   15 1
  26   14   42 1
  27   14   43 1
  28   15   44 1
  29   15   45 1
  30   16   17 1
  31   16   46 1
  32   16   47 1
  33   17   18 ar
  34   17   22 ar
  35   18   19 ar
  36   18   48 1
  37   19   20 ar
  38   19   49 1
  39   20   21 ar
  40   20   31 1
  41   21   22 ar
  42   21   50 1
  43   22   51 1
  44   23   24 ar
  45   23   28 ar
  46   24   25 ar
  47   24   52 1
  48   25   26 ar
  49   26   27 ar
  50   26   29 1
  51   27   28 ar
  52   27   53 1
  53   28   54 1
  54   29   55 1
  55   29   56 1
  56   29   57 1
  57   30   58 1
  58   31   32 1
  59   32   33 1
  60   32   34 1
  61   32   35 1

#	End of record

