#	Name: ASD08151110
#	Creating user name:	WinNT
#	Creation time:	15. 06. 2019 21:17

#	Modifying user name:	WinNT
#	Modification time:	15. 06. 2019 21:17

#	Program:	/corina/corina34_cracker 3.40 0067  02.08.2006

@<TRIPOS>MOLECULE
ASD08151110
  65   68    0    0    0
SMALL
NO_CHARGES


@<TRIPOS>ATOM
   1 C1             3.8336     2.1471     3.1300 C.ar    
   2 C2             3.1886     0.9143     3.3116 C.ar    
   3 C3             3.1557     0.0082     2.2915 C.ar    
   4 C4             3.7533     0.2846     1.0675 C.ar    
   5 C5             4.3993     1.4890     0.8485 C.ar    
   6 C6             4.4485     2.4470     1.8878 C.ar    
   7 C7             3.6976    -0.7407    -0.0355 C.3     
   8 C8             2.5432    -0.4083    -0.9830 C.3     
   9 N9             3.4870    -2.0699     0.5434 N.pl3   
  10 C10            4.5647    -2.7963     1.0188 C.ar    
  11 C11            4.3813    -4.0726     1.5772 C.ar    
  12 C12            5.5139    -4.7622     2.0425 C.ar    
  13 N13            6.7077    -4.1878     1.9383 N.ar    
  14 C14            6.8318    -2.9896     1.4072 C.ar    
  15 N15            5.7980    -2.3053     0.9526 N.ar    
  16 N16            3.3092    -4.8704     1.7992 N.2     
  17 C17            3.7019    -5.9785     2.3573 C.2     
  18 N18            5.0542    -5.9600     2.5284 N.pl3   
  19 C19            5.0329     1.7714    -0.4605 C.ar    
  20 C20            4.5443     2.7989    -1.2675 C.ar    
  21 C21            5.1379     3.0586    -2.4856 C.ar    
  22 C22            6.2163     2.3025    -2.9085 C.ar    
  23 C23            6.7069     1.2804    -2.1123 C.ar    
  24 C24            6.1232     1.0150    -0.8877 C.ar    
  25 F25            7.7605     0.5455    -2.5310 F       
  26 Cl26           2.4348     0.5422     4.8304 Cl      
  27 N27            5.0569     3.6235     1.7316 N.ar    
  28 N28            5.0959     4.4876     2.6819 N.ar    
  29 C29            4.5462     4.2851     3.8714 C.ar    
  30 C30            3.8908     3.1180     4.1481 C.ar    
  31 H31            2.6576    -0.9388     2.4379 H       
  32 H32            4.6366    -0.7302    -0.5891 H       
  33 H33            2.7000     0.5806    -1.4138 H       
  34 H34            2.5030    -1.1499    -1.7808 H       
  35 H35            1.6043    -0.4189    -0.4294 H       
  36 H36            2.5921    -2.4408     0.5936 H       
  37 H37            7.8164    -2.5514     1.3375 H       
  38 H38            3.0523    -6.7927     2.6428 H       
  39 H39            5.5926    -6.6645     2.9216 H       
  40 H40            3.7022     3.3902    -0.9394 H       
  41 H41            4.7594     3.8539    -3.1106 H       
  42 H42            6.6772     2.5095    -3.8630 H       
  43 H43            6.5060     0.2184    -0.2669 H       
  44 H44            4.6142     5.0520     4.6287 H       
  45 H45            3.4397     2.9443     5.1138 H       
  46 O46           17.1567    18.5129    11.0233 O.3     
  47 C47           17.1749    17.1707    11.0159 C.2     
  48 C48           15.8802    16.3995    11.0241 C.3     
  49 C49           16.1801    14.8993    11.0132 C.3     
  50 C50           14.8656    14.1163    11.0215 C.3     
  51 C51           15.1656    12.6160    11.0106 C.3     
  52 C52           13.8709    11.8448    11.0188 C.2     
  53 O53           13.8891    10.5027    11.0115 O.3     
  54 O54           12.8164    12.4347    11.0321 O.2     
  55 O55           18.2293    16.5809    11.0027 O.2     
  56 H56           18.0122    18.9636    11.0175 H       
  57 H57           15.3136    16.6503    11.9209 H       
  58 H58           15.2966    16.6598    10.1411 H       
  59 H59           16.7467    14.6485    10.1164 H       
  60 H60           16.7637    14.6390    11.8963 H       
  61 H61           14.2991    14.3670    11.9183 H       
  62 H62           14.2821    14.3766    10.1385 H       
  63 H63           15.7321    12.3653    10.1138 H       
  64 H64           15.7491    12.3557    11.8937 H       
  65 H65           13.0335    10.0520    11.0172 H       
@<TRIPOS>BOND
   1    1    2 ar
   2    1    6 ar
   3    1   30 ar
   4    2    3 ar
   5    2   26 1
   6    3    4 ar
   7    3   31 1
   8    4    5 ar
   9    4    7 1
  10    5    6 ar
  11    5   19 1
  12    6   27 ar
  13    7    8 1
  14    7    9 1
  15    7   32 1
  16    8   33 1
  17    8   34 1
  18    8   35 1
  19    9   10 1
  20    9   36 1
  21   10   11 ar
  22   10   15 ar
  23   11   12 ar
  24   11   16 1
  25   12   13 ar
  26   12   18 1
  27   13   14 ar
  28   14   15 ar
  29   14   37 1
  30   16   17 2
  31   17   18 1
  32   17   38 1
  33   18   39 1
  34   19   20 ar
  35   19   24 ar
  36   20   21 ar
  37   20   40 1
  38   21   22 ar
  39   21   41 1
  40   22   23 ar
  41   22   42 1
  42   23   24 ar
  43   23   25 1
  44   24   43 1
  45   27   28 ar
  46   28   29 ar
  47   29   30 ar
  48   29   44 1
  49   30   45 1
  50   46   47 1
  51   46   56 1
  52   47   48 1
  53   47   55 2
  54   48   49 1
  55   48   57 1
  56   48   58 1
  57   49   50 1
  58   49   59 1
  59   49   60 1
  60   50   51 1
  61   50   61 1
  62   50   62 1
  63   51   52 1
  64   51   63 1
  65   51   64 1
  66   52   53 1
  67   52   54 2
  68   53   65 1

#	End of record

