#	Name: ASD06590014
#	Creating user name:	WinNT
#	Creation time:	15. 06. 2019 21:06

#	Modifying user name:	WinNT
#	Modification time:	15. 06. 2019 21:06

#	Program:	/corina/corina34_cracker 3.40 0067  02.08.2006

@<TRIPOS>MOLECULE
ASD06590014
 374  373    0    0    0
SMALL
NO_CHARGES


@<TRIPOS>ATOM
   1 C1            -6.1451    12.8544    18.3321 C.2     
   2 O2            -6.0435    11.7270    17.8966 O.2     
   3 N3            -3.9180    12.5589    19.2582 N.3     
   4 C4            -4.9377    13.5542    18.9008 C.3     
   5 C5            -4.3673    14.5165    17.8570 C.3     
   6 C6            -3.2192    15.3171    18.4750 C.3     
   7 C7            -2.6488    16.2795    17.4312 C.3     
   8 C8            -1.5008    17.0801    18.0492 C.3     
   9 N9            -0.9546    18.0015    17.0498 N.am    
  10 C10           -9.4125    13.9142    17.1214 C.2     
  11 O11           -9.3423    15.0461    17.5512 O.2     
  12 N12           -7.3367    13.4834    18.3023 N.am    
  13 C13           -8.4831    12.8501    17.6458 C.3     
  14 C14           -9.2285    11.9739    18.6545 C.3     
  15 C15          -10.3459    11.2113    17.9399 C.3     
  16 C16           -9.7337    10.2241    16.9441 C.3     
  17 C17          -11.1803    10.4461    18.9691 C.3     
  18 C18          -12.5164    13.9294    15.1904 C.2     
  19 O19          -12.5745    12.7182    15.1689 O.2     
  20 N20          -10.3217    13.6079    16.1747 N.am    
  21 C21          -11.2909    14.6154    15.7368 C.3     
  22 C22          -10.6642    15.4855    14.6454 C.3     
  23 C23           -9.4947    16.2776    15.2334 C.3     
  24 C24           -8.8680    17.1476    14.1420 C.3     
  25 N25           -7.7482    17.9061    14.7050 N.pl3   
  26 C26           -7.0273    18.7622    13.9066 C.2     
  27 N27           -6.0310    19.4370    14.4075 N.2     
  28 N28           -7.3572    18.9065    12.5798 N.pl3   
  29 C29          -15.4356    14.9107    13.2210 C.2     
  30 O30          -14.9815    16.0120    12.9934 O.2     
  31 N31          -13.5479    14.6618    14.7256 N.am    
  32 C32          -14.7392    13.9949    14.1944 C.3     
  33 C33          -15.6893    13.6558    15.3447 C.3     
  34 C34          -15.0280    12.6293    16.2666 C.3     
  35 C35          -15.9639    12.2952    17.3996 C.2     
  36 O36          -17.0485    12.8239    17.4632 O.2     
  37 O37          -15.5925    11.4104    18.3382 O.3     
  38 C38          -18.7001    15.0307    11.5803 C.2     
  39 O39          -19.1256    14.0946    12.2234 O.2     
  40 N40          -16.5631    14.5058    12.6035 N.am    
  41 C41          -17.2400    15.3961    11.6572 C.3     
  42 C42          -16.6038    15.2485    10.2736 C.3     
  43 C43          -15.1231    15.6257    10.3503 C.3     
  44 O44          -16.7283    13.8945     9.8341 O.3     
  45 C45          -21.3062    15.3547     9.1867 C.2     
  46 O46          -20.4875    15.6844     8.3548 O.2     
  47 N47          -19.5329    15.7442    10.7969 N.am    
  48 C48          -20.9303    15.3309    10.6458 C.3     
  49 C49          -21.8332    16.2927    11.4209 C.3     
  50 C50          -21.5570    16.1620    12.8965 C.2     
  51 O51          -20.6874    15.4119    13.2866 O.2     
  52 N52          -22.2762    16.8787    13.7828 N.am    
  53 C53          -24.4071    15.2199     7.2556 C.2     
  54 O54          -25.0956    15.3238     8.2486 O.2     
  55 N55          -22.5522    15.0096     8.8061 N.am    
  56 C56          -22.9176    15.0327     7.3876 C.3     
  57 C57          -22.5099    13.7106     6.7343 C.3     
  58 C58          -26.7980    15.4777     4.4465 C.2     
  59 O59          -25.9408    15.3547     3.5974 O.2     
  60 N60          -24.9741    15.2719     6.0340 N.am    
  61 C61          -26.4221    15.4539     5.9057 C.3     
  62 C62          -29.7382    16.4247     2.4916 C.2     
  63 O63          -30.2946    16.9041     3.4567 O.2     
  64 N64          -28.0868    15.6356     4.0851 N.am    
  65 C65          -28.4522    15.6587     2.6666 C.3     
  66 C66          -28.6400    14.2255     2.1649 C.3     
  67 C67          -27.3029    13.4844     2.2264 C.3     
  68 C68          -27.4906    12.0512     1.7247 C.3     
  69 N69          -26.2103    11.3416     1.7836 N.pl3   
  70 C70          -26.1324    10.0296     1.3802 C.2     
  71 N71          -27.1977     9.4171     0.9453 N.2     
  72 N72          -24.9310     9.3636     1.4354 N.pl3   
  73 C73          -32.2131    16.8594    -0.1633 C.2     
  74 O74          -31.7122    15.9932    -0.8487 O.2     
  75 N75          -30.2699    16.5770     1.2625 N.am    
  76 C76          -31.5200    17.3217     1.0924 C.3     
  77 C77          -31.2125    18.8165     0.9844 C.3     
  78 O78          -30.4605    19.0634    -0.2054 O.3     
  79 C79          -33.5455    17.4776    -2.9455 C.2     
  80 O80          -32.6213    18.2605    -2.8832 O.2     
  81 N81          -33.3897    17.4085    -0.5248 N.am    
  82 C82          -34.1173    16.8848    -1.6835 C.3     
  83 C83          -35.5963    17.2591    -1.5688 C.3     
  84 C84          -36.1880    16.6006    -0.3492 C.2     
  85 O85          -35.5261    15.8260     0.3002 O.2     
  86 O86          -37.4504    16.8745     0.0155 O.3     
  87 C87          -34.5546    17.7004    -6.4520 C.2     
  88 O88          -35.6469    17.2218    -6.2312 O.2     
  89 N89          -34.0612    17.1378    -4.1435 N.am    
  90 C90          -33.5054    17.7141    -5.3703 C.3     
  91 C91          -32.2983    16.8886    -5.8202 C.3     
  92 C92          -31.2261    16.9166    -4.7292 C.3     
  93 O93          -32.7049    15.5387    -6.0540 O.3     
  94 C94          -34.5571    18.1853   -10.0752 C.2     
  95 O95          -33.3509    18.3049   -10.1161 O.2     
  96 N96          -34.2791    18.2199    -7.6647 N.am    
  97 C97          -35.2630    18.1191    -8.7454 C.3     
  98 C98          -36.2585    19.2760    -8.6384 C.3     
  99 C99          -37.0632    19.1383    -7.3444 C.3     
 100 C100         -38.0587    20.2952    -7.2373 C.3     
 101 N101         -38.8292    20.1634    -5.9983 N.pl3   
 102 C102         -39.7910    21.0943    -5.6845 C.2     
 103 N103         -40.0174    22.0941    -6.4895 N.2     
 104 N104         -40.5140    20.9706    -4.5218 N.pl3   
 105 C105         -35.5344    18.6815   -13.5626 C.2     
 106 O106         -36.6756    18.9606   -13.2613 O.2     
 107 N107         -35.2661    18.1116   -11.2190 N.am    
 108 C108         -34.5799    18.1759   -12.5117 C.3     
 109 C109         -34.0886    16.7795   -12.8984 C.3     
 110 C110         -33.0264    16.3175   -11.8988 C.3     
 111 C111         -32.5426    14.9421   -12.2797 C.2     
 112 O112         -33.0021    14.3860   -13.2547 O.2     
 113 N113         -31.5993    14.3299   -11.5369 N.am    
 114 C114         -35.6069    18.8268   -17.2145 C.2     
 115 O115         -34.6151    18.1363   -17.3173 O.2     
 116 N116         -35.1199    18.8235   -14.8371 N.am    
 117 C117         -36.0478    19.3151   -15.8587 C.3     
 118 C118         -36.0569    20.8450   -15.8457 C.3     
 119 C119         -36.6225    21.3403   -14.5132 C.3     
 120 C120         -36.6315    22.8472   -14.5004 C.2     
 121 O121         -36.2254    23.4643   -15.4623 O.2     
 122 N122         -37.0907    23.5092   -13.4199 N.am    
 123 C123         -36.4011    19.6188   -20.6937 C.2     
 124 O124         -37.0613    20.5869   -20.3811 O.2     
 125 N125         -36.3146    19.1576   -18.3128 N.am    
 126 C126         -35.8859    18.6830   -19.6308 C.3     
 127 C127         -36.4436    17.2790   -19.8735 C.3     
 128 C128         -35.8238    16.3037   -18.8709 C.3     
 129 C129         -36.3815    14.8998   -19.1136 C.3     
 130 N130         -35.7880    13.9658   -18.1535 N.pl3   
 131 C131         -36.1404    12.6372   -18.1792 C.2     
 132 N132         -35.6124    11.8063   -17.3250 N.2     
 133 N133         -37.0498    12.1850   -19.1059 N.pl3   
 134 C134         -36.7468    19.5492   -24.3322 C.2     
 135 O135         -36.4424    18.3769   -24.3946 O.2     
 136 N136         -36.1282    19.3800   -21.9918 N.am    
 137 C137         -36.6290    20.2898   -23.0251 C.3     
 138 C138         -35.6577    21.4606   -23.1880 C.3     
 139 C139         -35.6328    22.2857   -21.8998 C.3     
 140 C140         -34.6615    23.4566   -22.0627 C.3     
 141 C141         -34.6366    24.2816   -20.7744 C.3     
 142 N142         -33.7041    25.4058   -20.9309 N.3     
 143 C143         -37.2119    20.5210   -27.8359 C.2     
 144 O144         -37.6313    21.6399   -27.6282 O.2     
 145 N145         -37.1905    20.1896   -25.4320 N.am    
 146 C146         -37.2015    19.5021   -26.7256 C.3     
 147 C147         -38.4511    18.6251   -26.8265 C.3     
 148 C148         -38.4617    17.9059   -28.1768 C.3     
 149 C149         -37.2956    16.9173   -28.2373 C.3     
 150 C150         -39.7812    17.1488   -28.3410 C.3     
 151 C151         -38.0407    21.2847   -30.8020 C.2     
 152 O152         -38.9494    20.5754   -30.4400 O.2     
 153 N153         -36.7552    20.1889   -29.0597 N.am    
 154 C154         -36.6998    21.1986   -30.1197 C.3     
 155 C155         -35.6315    20.8063   -31.1423 C.3     
 156 C156         -34.2604    20.7822   -30.4638 C.3     
 157 C157         -33.2097    20.2771   -31.4547 C.3     
 158 C158         -33.8927    22.1952   -30.0066 C.3     
 159 O159         -38.2255    22.1493   -31.8120 O.3     
 160 C160           0.0717    18.8137    17.3716 C.2     
 161 O161           0.5431    18.7817    18.4886 O.2     
 162 C162          12.6627    32.1023    13.3630 C.3     
 163 C163          12.0922    31.1400    14.4068 C.3     
 164 C164          10.9442    30.3393    13.7888 C.3     
 165 C165          10.3738    29.3770    14.8326 C.3     
 166 C166           9.2258    28.5764    14.2146 C.3     
 167 C167           8.6554    27.6140    15.2583 C.3     
 168 C168           7.5073    26.8134    14.6404 C.3     
 169 C169           6.9369    25.8511    15.6841 C.3     
 170 C170           5.7889    25.0504    15.0662 C.3     
 171 C171           5.2185    24.0881    16.1099 C.3     
 172 C172           4.0704    23.2875    15.4920 C.3     
 173 C173           3.5000    22.3251    16.5357 C.3     
 174 C174           2.3520    21.5245    15.9177 C.3     
 175 C175           1.7816    20.5622    16.9615 C.3     
 176 C176           0.6335    19.7615    16.3435 C.3     
 177 H177          -4.2480    11.9510    19.9928 H       
 178 H178          -3.6327    12.0271    18.4496 H       
 179 H179          -5.2273    14.1132    19.7905 H       
 180 H180          -3.9962    13.9487    17.0038 H       
 181 H181          -5.1498    15.1994    17.5264 H       
 182 H182          -3.5903    15.8849    19.3283 H       
 183 H183          -2.4367    14.6342    18.8056 H       
 184 H184          -2.2778    15.7117    16.5780 H       
 185 H185          -3.4314    16.9624    17.1006 H       
 186 H186          -1.8718    17.6479    18.9025 H       
 187 H187          -0.7182    16.3972    18.3798 H       
 188 H188          -1.3316    18.0271    16.1564 H       
 189 H189          -7.4353    14.3554    18.7156 H       
 190 H190          -8.1328    12.2336    16.8180 H       
 191 H191          -8.5333    11.2641    19.1028 H       
 192 H192          -9.6587    12.6028    19.4340 H       
 193 H193         -10.9838    11.9164    17.4069 H       
 194 H194         -10.5293     9.7299    16.3866 H       
 195 H195          -9.0848    10.7612    16.2523 H       
 196 H196          -9.1507     9.4779    17.4840 H       
 197 H197         -11.6164    11.1494    19.6785 H       
 198 H198         -11.9763     9.9028    18.4600 H       
 199 H199         -10.5424     9.7410    19.5021 H       
 200 H200         -10.3343    12.7205    15.7834 H       
 201 H201         -11.5721    15.2414    16.5836 H       
 202 H202         -10.3026    14.8499    13.8370 H       
 203 H203         -11.4125    16.1765    14.2572 H       
 204 H204          -9.8563    16.9131    16.0417 H       
 205 H205          -8.7465    15.5865    15.6215 H       
 206 H206          -8.5064    16.5121    13.3336 H       
 207 H207          -9.6163    17.8387    13.7539 H       
 208 H208          -7.5155    17.8043    15.6412 H       
 209 H209          -5.5223    20.0410    13.8442 H       
 210 H210          -8.0986    18.4043    12.2070 H       
 211 H211          -6.8486    19.5105    12.0164 H       
 212 H212         -13.5014    15.6306    14.7427 H       
 213 H213         -14.4450    13.0780    13.6838 H       
 214 H214         -15.9133    14.5606    15.9097 H       
 215 H215         -16.6134    13.2406    14.9423 H       
 216 H216         -14.8041    11.7245    15.7016 H       
 217 H217         -14.1040    13.0445    16.6690 H       
 218 H218         -16.2265    11.2284    19.0453 H       
 219 H219         -16.9263    13.6250    12.7855 H       
 220 H220         -17.1410    16.4278    11.9945 H       
 221 H221         -17.1106    15.9074     9.5685 H       
 222 H222         -14.6243    14.9923    11.0839 H       
 223 H223         -14.6608    15.4835     9.3734 H       
 224 H224         -15.0291    16.6700    10.6482 H       
 225 H225         -17.6422    13.5868     9.7622 H       
 226 H226         -19.2071    16.5314    10.3331 H       
 227 H227         -21.0547    14.3211    11.0367 H       
 228 H228         -21.6323    17.3157    11.1028 H       
 229 H229         -22.8773    16.0493    11.2237 H       
 230 H230         -22.9716    17.4786    13.4709 H       
 231 H231         -22.0984    16.7946    14.7327 H       
 232 H232         -23.2070    14.7458     9.4714 H       
 233 H233         -22.4027    15.8563     6.8931 H       
 234 H234         -23.0249    12.8870     7.2288 H       
 235 H235         -22.7818    13.7278     5.6789 H       
 236 H236         -21.4326    13.5752     6.8298 H       
 237 H237         -24.4235    15.1888     5.2398 H       
 238 H238         -26.7126    16.3957     6.3711 H       
 239 H239         -26.9370    14.6302     6.4001 H       
 240 H240         -28.7724    15.7339     4.7642 H       
 241 H241         -27.6603    16.1428     2.0952 H       
 242 H242         -29.3686    13.7132     2.7931 H       
 243 H243         -28.9977    14.2449     1.1355 H       
 244 H244         -26.5743    13.9967     1.5982 H       
 245 H245         -26.9452    13.4650     3.2558 H       
 246 H246         -28.2193    11.5389     2.3529 H       
 247 H247         -27.8483    12.0706     0.6952 H       
 248 H248         -25.4176    11.7974     2.1071 H       
 249 H249         -27.1427     8.4914     0.6607 H       
 250 H250         -24.1382     9.8194     1.7590 H       
 251 H251         -24.8760     8.4379     1.1508 H       
 252 H252         -29.8249    16.1936     0.4907 H       
 253 H253         -32.1678    17.1451     1.9510 H       
 254 H254         -32.1462    19.3778     0.9471 H       
 255 H255         -30.6334    19.1320     1.8523 H       
 256 H256         -30.2295    19.9929    -0.3390 H       
 257 H257         -33.7547    18.1505    -0.0177 H       
 258 H258         -34.0184    15.7998    -1.7145 H       
 259 H259         -35.6914    18.3413    -1.4795 H       
 260 H260         -36.1270    16.9200    -2.4584 H       
 261 H261         -37.7861    16.4278     0.8048 H       
 262 H262         -34.8004    16.5117    -4.1933 H       
 263 H263         -33.1929    18.7409    -5.1803 H       
 264 H264         -31.8922    17.3101    -6.7397 H       
 265 H265         -31.5967    16.4027    -3.8422 H       
 266 H266         -30.3274    16.4163    -5.0900 H       
 267 H267         -30.9902    17.9507    -4.4780 H       
 268 H268         -33.3846    15.4450    -6.7354 H       
 269 H269         -33.4294    18.6605    -7.8219 H       
 270 H270         -35.7964    17.1720    -8.6640 H       
 271 H271         -35.7169    20.2218    -8.6306 H       
 272 H272         -36.9362    19.2524    -9.4918 H       
 273 H273         -37.6048    18.1924    -7.3522 H       
 274 H274         -36.3856    19.1619    -6.4909 H       
 275 H275         -37.5171    21.2411    -7.2295 H       
 276 H276         -38.7363    20.2716    -8.0908 H       
 277 H277         -38.6607    19.4193    -5.3992 H       
 278 H278         -40.6960    22.7509    -6.2681 H       
 279 H279         -40.3455    20.2265    -3.9227 H       
 280 H280         -41.1926    21.6274    -4.3004 H       
 281 H281         -36.2309    18.0159   -11.1863 H       
 282 H282         -33.7288    18.8529   -12.4380 H       
 283 H283         -34.9270    16.0829   -12.8856 H       
 284 H284         -33.6571    16.8102   -13.8989 H       
 285 H285         -32.1881    17.0140   -11.9116 H       
 286 H286         -33.4580    16.2867   -10.8983 H       
 287 H287         -31.2318    14.7746   -10.7571 H       
 288 H288         -31.2878    13.4445   -11.7820 H       
 289 H289         -34.2072    18.6003   -15.0781 H       
 290 H290         -37.0507    18.9439   -15.6474 H       
 291 H291         -35.0392    21.2154   -15.9686 H       
 292 H292         -36.6782    21.2116   -16.6628 H       
 293 H293         -37.6402    20.9699   -14.3903 H       
 294 H294         -36.0012    20.9737   -13.6960 H       
 295 H295         -37.4154    23.0158   -12.6506 H       
 296 H296         -37.0964    24.4792   -13.4117 H       
 297 H297         -37.1077    19.7099   -18.2306 H       
 298 H298         -34.7970    18.6531   -19.6698 H       
 299 H299         -37.5262    17.2912   -19.7469 H       
 300 H300         -36.1999    16.9616   -20.8874 H       
 301 H301         -34.7413    16.2915   -18.9975 H       
 302 H302         -36.0675    16.6212   -17.8570 H       
 303 H303         -37.4641    14.9120   -18.9870 H       
 304 H304         -36.1378    14.5823   -20.1274 H       
 305 H305         -35.1465    14.2849   -17.4996 H       
 306 H306         -35.8610    10.8688   -17.3431 H       
 307 H307         -37.4427    12.8034   -19.7416 H       
 308 H308         -37.2984    11.2476   -19.1240 H       
 309 H309         -35.6001    18.6057   -22.2418 H       
 310 H310         -37.6084    20.6682   -22.7323 H       
 311 H311         -34.6581    21.0776   -23.3935 H       
 312 H312         -35.9831    22.0900   -24.0163 H       
 313 H313         -36.6324    22.6687   -21.6942 H       
 314 H314         -35.3075    21.6563   -21.0714 H       
 315 H315         -33.6619    23.0735   -22.2682 H       
 316 H316         -34.9869    24.0859   -22.8910 H       
 317 H317         -35.6362    24.6646   -20.5689 H       
 318 H318         -34.3113    23.6522   -19.9461 H       
 319 H319         -33.9471    25.9684   -21.7325 H       
 320 H320         -33.6697    25.9664   -20.0927 H       
 321 H321         -37.5025    21.1058   -25.3670 H       
 322 H322         -36.3118    18.8785   -26.8132 H       
 323 H323         -38.4441    17.8889   -26.0227 H       
 324 H324         -39.3407    19.2489   -26.7401 H       
 325 H325         -38.3602    18.6371   -28.9788 H       
 326 H326         -37.4198    16.1610   -27.4622 H       
 327 H327         -37.2777    16.4359   -29.2151 H       
 328 H328         -36.3585    17.4506   -28.0778 H       
 329 H329         -40.6119    17.8531   -28.2980 H       
 330 H330         -39.7887    16.6364   -29.3031 H       
 331 H331         -39.8827    16.4176   -27.5391 H       
 332 H332         -36.4632    19.2814   -29.2385 H       
 333 H333         -36.4497    22.1670   -29.6864 H       
 334 H334         -35.8566    19.8174   -31.5418 H       
 335 H335         -35.6220    21.5328   -31.9548 H       
 336 H336         -34.2941    20.1181   -29.6001 H       
 337 H337         -32.2503    20.1768   -30.9473 H       
 338 H338         -33.5165    19.3075   -31.8468 H       
 339 H339         -33.1139    20.9873   -32.2760 H       
 340 H340         -34.6412    22.5550   -29.3006 H       
 341 H341         -32.9159    22.1780   -29.5232 H       
 342 H342         -33.8590    22.8593   -30.8703 H       
 343 H343         -39.1028    22.1685   -32.2185 H       
 344 H344          13.4805    32.6727    13.8033 H       
 345 H345          13.0337    31.5345    12.5097 H       
 346 H346          11.8801    32.7852    13.0324 H       
 347 H347          12.8748    30.4570    14.7374 H       
 348 H348          11.7212    31.7077    15.2600 H       
 349 H349          10.1617    31.0223    13.4582 H       
 350 H350          11.3153    29.7716    12.9355 H       
 351 H351          11.1564    28.6941    15.1631 H       
 352 H352          10.0027    29.9448    15.6858 H       
 353 H353           8.4432    29.2593    13.8840 H       
 354 H354           9.5968    28.0086    13.3613 H       
 355 H355           9.4379    26.9311    15.5889 H       
 356 H356           8.2843    28.1818    16.1116 H       
 357 H357           6.7248    27.4963    14.3098 H       
 358 H358           7.8784    26.2456    13.7871 H       
 359 H359           7.7195    25.1681    16.0147 H       
 360 H360           6.5659    26.4188    16.5374 H       
 361 H361           5.0063    25.7334    14.7356 H       
 362 H362           6.1599    24.4827    14.2129 H       
 363 H363           6.0010    23.4052    16.4405 H       
 364 H364           4.8474    24.6559    16.9632 H       
 365 H365           3.2879    23.9704    15.1614 H       
 366 H366           4.4415    22.7197    14.6387 H       
 367 H367           4.2826    21.6422    16.8663 H       
 368 H368           3.1290    22.8929    17.3890 H       
 369 H369           1.5694    22.2074    15.5871 H       
 370 H370           2.7230    20.9567    15.0645 H       
 371 H371           2.5641    19.8792    17.2921 H       
 372 H372           1.4105    21.1299    17.8148 H       
 373 H373           1.0046    19.1938    15.4903 H       
 374 H374          -0.1490    20.4445    16.0129 H       
@<TRIPOS>BOND
   1    1    2 2
   2    1    4 1
   3    1   12 am
   4    3    4 1
   5    3  177 1
   6    3  178 1
   7    4    5 1
   8    4  179 1
   9    5    6 1
  10    5  180 1
  11    5  181 1
  12    6    7 1
  13    6  182 1
  14    6  183 1
  15    7    8 1
  16    7  184 1
  17    7  185 1
  18    8    9 1
  19    8  186 1
  20    8  187 1
  21    9  160 am
  22    9  188 1
  23   10   11 2
  24   10   13 1
  25   10   20 am
  26   12   13 1
  27   12  189 1
  28   13   14 1
  29   13  190 1
  30   14   15 1
  31   14  191 1
  32   14  192 1
  33   15   16 1
  34   15   17 1
  35   15  193 1
  36   16  194 1
  37   16  195 1
  38   16  196 1
  39   17  197 1
  40   17  198 1
  41   17  199 1
  42   18   19 2
  43   18   21 1
  44   18   31 am
  45   20   21 1
  46   20  200 1
  47   21   22 1
  48   21  201 1
  49   22   23 1
  50   22  202 1
  51   22  203 1
  52   23   24 1
  53   23  204 1
  54   23  205 1
  55   24   25 1
  56   24  206 1
  57   24  207 1
  58   25   26 1
  59   25  208 1
  60   26   27 2
  61   26   28 1
  62   27  209 1
  63   28  210 1
  64   28  211 1
  65   29   30 2
  66   29   32 1
  67   29   40 am
  68   31   32 1
  69   31  212 1
  70   32   33 1
  71   32  213 1
  72   33   34 1
  73   33  214 1
  74   33  215 1
  75   34   35 1
  76   34  216 1
  77   34  217 1
  78   35   36 2
  79   35   37 1
  80   37  218 1
  81   38   39 2
  82   38   41 1
  83   38   47 am
  84   40   41 1
  85   40  219 1
  86   41   42 1
  87   41  220 1
  88   42   43 1
  89   42   44 1
  90   42  221 1
  91   43  222 1
  92   43  223 1
  93   43  224 1
  94   44  225 1
  95   45   46 2
  96   45   48 1
  97   45   55 am
  98   47   48 1
  99   47  226 1
 100   48   49 1
 101   48  227 1
 102   49   50 1
 103   49  228 1
 104   49  229 1
 105   50   51 2
 106   50   52 am
 107   52  230 1
 108   52  231 1
 109   53   54 2
 110   53   56 1
 111   53   60 am
 112   55   56 1
 113   55  232 1
 114   56   57 1
 115   56  233 1
 116   57  234 1
 117   57  235 1
 118   57  236 1
 119   58   59 2
 120   58   61 1
 121   58   64 am
 122   60   61 1
 123   60  237 1
 124   61  238 1
 125   61  239 1
 126   62   63 2
 127   62   65 1
 128   62   75 am
 129   64   65 1
 130   64  240 1
 131   65   66 1
 132   65  241 1
 133   66   67 1
 134   66  242 1
 135   66  243 1
 136   67   68 1
 137   67  244 1
 138   67  245 1
 139   68   69 1
 140   68  246 1
 141   68  247 1
 142   69   70 1
 143   69  248 1
 144   70   71 2
 145   70   72 1
 146   71  249 1
 147   72  250 1
 148   72  251 1
 149   73   74 2
 150   73   76 1
 151   73   81 am
 152   75   76 1
 153   75  252 1
 154   76   77 1
 155   76  253 1
 156   77   78 1
 157   77  254 1
 158   77  255 1
 159   78  256 1
 160   79   80 2
 161   79   82 1
 162   79   89 am
 163   81   82 1
 164   81  257 1
 165   82   83 1
 166   82  258 1
 167   83   84 1
 168   83  259 1
 169   83  260 1
 170   84   85 2
 171   84   86 1
 172   86  261 1
 173   87   88 2
 174   87   90 1
 175   87   96 am
 176   89   90 1
 177   89  262 1
 178   90   91 1
 179   90  263 1
 180   91   92 1
 181   91   93 1
 182   91  264 1
 183   92  265 1
 184   92  266 1
 185   92  267 1
 186   93  268 1
 187   94   95 2
 188   94   97 1
 189   94  107 am
 190   96   97 1
 191   96  269 1
 192   97   98 1
 193   97  270 1
 194   98   99 1
 195   98  271 1
 196   98  272 1
 197   99  100 1
 198   99  273 1
 199   99  274 1
 200  100  101 1
 201  100  275 1
 202  100  276 1
 203  101  102 1
 204  101  277 1
 205  102  103 2
 206  102  104 1
 207  103  278 1
 208  104  279 1
 209  104  280 1
 210  105  106 2
 211  105  108 1
 212  105  116 am
 213  107  108 1
 214  107  281 1
 215  108  109 1
 216  108  282 1
 217  109  110 1
 218  109  283 1
 219  109  284 1
 220  110  111 1
 221  110  285 1
 222  110  286 1
 223  111  112 2
 224  111  113 am
 225  113  287 1
 226  113  288 1
 227  114  115 2
 228  114  117 1
 229  114  125 am
 230  116  117 1
 231  116  289 1
 232  117  118 1
 233  117  290 1
 234  118  119 1
 235  118  291 1
 236  118  292 1
 237  119  120 1
 238  119  293 1
 239  119  294 1
 240  120  121 2
 241  120  122 am
 242  122  295 1
 243  122  296 1
 244  123  124 2
 245  123  126 1
 246  123  136 am
 247  125  126 1
 248  125  297 1
 249  126  127 1
 250  126  298 1
 251  127  128 1
 252  127  299 1
 253  127  300 1
 254  128  129 1
 255  128  301 1
 256  128  302 1
 257  129  130 1
 258  129  303 1
 259  129  304 1
 260  130  131 1
 261  130  305 1
 262  131  132 2
 263  131  133 1
 264  132  306 1
 265  133  307 1
 266  133  308 1
 267  134  135 2
 268  134  137 1
 269  134  145 am
 270  136  137 1
 271  136  309 1
 272  137  138 1
 273  137  310 1
 274  138  139 1
 275  138  311 1
 276  138  312 1
 277  139  140 1
 278  139  313 1
 279  139  314 1
 280  140  141 1
 281  140  315 1
 282  140  316 1
 283  141  142 1
 284  141  317 1
 285  141  318 1
 286  142  319 1
 287  142  320 1
 288  143  144 2
 289  143  146 1
 290  143  153 am
 291  145  146 1
 292  145  321 1
 293  146  147 1
 294  146  322 1
 295  147  148 1
 296  147  323 1
 297  147  324 1
 298  148  149 1
 299  148  150 1
 300  148  325 1
 301  149  326 1
 302  149  327 1
 303  149  328 1
 304  150  329 1
 305  150  330 1
 306  150  331 1
 307  151  152 2
 308  151  154 1
 309  151  159 1
 310  153  154 1
 311  153  332 1
 312  154  155 1
 313  154  333 1
 314  155  156 1
 315  155  334 1
 316  155  335 1
 317  156  157 1
 318  156  158 1
 319  156  336 1
 320  157  337 1
 321  157  338 1
 322  157  339 1
 323  158  340 1
 324  158  341 1
 325  158  342 1
 326  159  343 1
 327  160  161 2
 328  160  176 1
 329  162  163 1
 330  162  344 1
 331  162  345 1
 332  162  346 1
 333  163  164 1
 334  163  347 1
 335  163  348 1
 336  164  165 1
 337  164  349 1
 338  164  350 1
 339  165  166 1
 340  165  351 1
 341  165  352 1
 342  166  167 1
 343  166  353 1
 344  166  354 1
 345  167  168 1
 346  167  355 1
 347  167  356 1
 348  168  169 1
 349  168  357 1
 350  168  358 1
 351  169  170 1
 352  169  359 1
 353  169  360 1
 354  170  171 1
 355  170  361 1
 356  170  362 1
 357  171  172 1
 358  171  363 1
 359  171  364 1
 360  172  173 1
 361  172  365 1
 362  172  366 1
 363  173  174 1
 364  173  367 1
 365  173  368 1
 366  174  175 1
 367  174  369 1
 368  174  370 1
 369  175  176 1
 370  175  371 1
 371  175  372 1
 372  176  373 1
 373  176  374 1

#	End of record

