#	Name: ASD01816783
#	Creating user name:	WinNT
#	Creation time:	15. 06. 2019 19:35

#	Modifying user name:	WinNT
#	Modification time:	15. 06. 2019 19:35

#	Program:	/corina/corina34_cracker 3.40 0067  02.08.2006

@<TRIPOS>MOLECULE
ASD01816783
  58   62    0    0    0
SMALL
NO_CHARGES


@<TRIPOS>ATOM
   1 C1            -0.0168     1.3897     0.0097 C.ar    
   2 C2             0.0021    -0.0041     0.0020 C.ar    
   3 C3             1.1796    -0.6877    -0.0124 C.ar    
   4 C4             2.3927     0.0187    -0.0202 C.ar    
   5 C5             2.3768     1.4381    -0.0129 C.ar    
   6 C6             1.1385     2.1078     0.0025 C.ar    
   7 C7             3.6297    -0.6529    -0.0346 C.ar    
   8 C8             4.7711     0.0956    -0.0411 C.ar    
   9 C9             4.6871     1.4959    -0.0333 C.ar    
  10 N10            3.5238     2.1168    -0.0202 N.ar    
  11 C11            3.6922    -2.1586    -0.0422 C.3     
  12 C12            5.9353     2.2963    -0.0400 C.2     
  13 O13            7.0146     1.7386    -0.0521 O.2     
  14 N14            5.8725     3.6426    -0.0327 N.am    
  15 C15            7.1057     4.4335    -0.0393 C.3     
  16 C16            7.5905     4.6102    -1.4796 C.3     
  17 C17            6.8345     5.8062     0.5796 C.3     
  18 C18            8.1224     6.6321     0.5727 C.3     
  19 C19            8.6072     6.8088    -0.8677 C.3     
  20 C20            8.8784     5.4361    -1.4865 C.3     
  21 C21            3.5763    -2.6591    -1.4590 C.ar    
  22 C22            4.7151    -2.8381    -2.2227 C.ar    
  23 C23            2.3320    -2.9437    -1.9906 C.ar    
  24 C24            2.2227    -3.4029    -3.2887 C.ar    
  25 C25            3.3638    -3.5787    -4.0597 C.ar    
  26 C26            4.6121    -3.2967    -3.5215 C.ar    
  27 O27            6.3817     5.6411     1.9249 O.3     
  28 N28            3.2561    -4.0447    -5.3775 N.pl3   
  29 C29            4.2818    -4.2588    -6.2322 C.2     
  30 C30            3.7598    -4.7054    -7.3981 C.2     
  31 C31            2.3696    -4.7667    -7.2522 C.2     
  32 N32            2.0672    -4.3767    -6.0400 N.2     
  33 H33           -0.9643     1.9080     0.0170 H       
  34 H34           -0.9302    -0.5493     0.0080 H       
  35 H35            1.1803    -1.7677    -0.0175 H       
  36 H36            1.1059     3.1873     0.0079 H       
  37 H37            5.7363    -0.3889    -0.0518 H       
  38 H38            4.6417    -2.4850     0.3819 H       
  39 H39            2.8716    -2.5593     0.5529 H       
  40 H40            5.0108     4.0879    -0.0231 H       
  41 H41            7.8710     3.9180     0.5410 H       
  42 H42            7.7837     3.6322    -1.9206 H       
  43 H43            6.8252     5.1256    -2.0600 H       
  44 H44            6.0692     6.3216    -0.0007 H       
  45 H45            7.9292     7.6101     1.0136 H       
  46 H46            8.8877     6.1167     1.1530 H       
  47 H47            7.8419     7.3243    -1.4480 H       
  48 H48            9.5247     7.3973    -0.8726 H       
  49 H49            9.6437     4.9207    -0.9062 H       
  50 H50            9.2238     5.5620    -2.5127 H       
  51 H51            5.6859    -2.6189    -1.8034 H       
  52 H52            1.4447    -2.8070    -1.3902 H       
  53 H53            1.2505    -3.6253    -3.7033 H       
  54 H54            5.5015    -3.4321    -4.1190 H       
  55 H55            6.1900     6.4724     2.3801 H       
  56 H56            5.3294    -4.1016    -6.0222 H       
  57 H57            4.3177    -4.9677    -8.2848 H       
  58 H58            1.6672    -5.0852    -8.0082 H       
@<TRIPOS>BOND
   1    1    2 ar
   2    1    6 ar
   3    1   33 1
   4    2    3 ar
   5    2   34 1
   6    3    4 ar
   7    3   35 1
   8    4    5 ar
   9    4    7 ar
  10    5    6 ar
  11    5   10 ar
  12    6   36 1
  13    7    8 ar
  14    7   11 1
  15    8    9 ar
  16    8   37 1
  17    9   10 ar
  18    9   12 1
  19   11   21 1
  20   11   38 1
  21   11   39 1
  22   12   13 2
  23   12   14 am
  24   14   15 1
  25   14   40 1
  26   15   16 1
  27   15   17 1
  28   15   41 1
  29   16   20 1
  30   16   42 1
  31   16   43 1
  32   17   18 1
  33   17   27 1
  34   17   44 1
  35   18   19 1
  36   18   45 1
  37   18   46 1
  38   19   20 1
  39   19   47 1
  40   19   48 1
  41   20   49 1
  42   20   50 1
  43   21   22 ar
  44   21   23 ar
  45   22   26 ar
  46   22   51 1
  47   23   24 ar
  48   23   52 1
  49   24   25 ar
  50   24   53 1
  51   25   26 ar
  52   25   28 1
  53   26   54 1
  54   27   55 1
  55   28   29 1
  56   28   32 1
  57   29   30 2
  58   29   56 1
  59   30   31 1
  60   30   57 1
  61   31   32 2
  62   31   58 1

#	End of record

