#	Name: ASD01020015
#	Creating user name:	WinNT
#	Creation time:	15. 06. 2019 18:56

#	Modifying user name:	WinNT
#	Modification time:	15. 06. 2019 18:56

#	Program:	/corina/corina34_cracker 3.40 0067  02.08.2006

@<TRIPOS>MOLECULE
ASD01020015
  64   69    0    0    0
SMALL
NO_CHARGES


@<TRIPOS>ATOM
   1 O1            -3.3071     3.2305     0.0893 O.2     
   2 C2            -2.0962     3.2344     0.1573 C.2     
   3 N3            -1.4365     4.3916     0.3622 N.am    
   4 C4            -2.1439     5.5807     0.4956 C.2     
   5 N5            -3.4348     5.6863     0.4447 N.2     
   6 C6            -3.9416     6.8961     0.5920 C.2     
   7 C7            -3.0358     7.8585     0.7761 C.2     
   8 S8            -1.4384     7.1158     0.7579 S.3     
   9 C9            -1.3296     1.9443     0.0189 C.3     
  10 H10           -0.6542     2.0127    -0.8339 H       
  11 N11           -2.2679     0.8385    -0.1886 N.am    
  12 C12           -3.2613     0.3675     0.7828 C.3     
  13 C13           -3.9866    -0.7794     0.1234 C.ar    
  14 C14           -5.0067    -1.6074     0.5343 C.ar    
  15 C15           -5.4793    -2.5969    -0.3080 C.ar    
  16 C16           -4.9234    -2.7588    -1.5765 C.ar    
  17 C17           -3.8922    -1.9249    -1.9969 C.ar    
  18 C18           -3.4183    -0.9284    -1.1452 C.ar    
  19 C19           -2.3641     0.0925    -1.3025 C.2     
  20 O20           -1.6792     0.2364    -2.2963 O.2     
  21 C21           -5.4317    -3.8215    -2.4784 C.ar    
  22 C22           -4.8732    -3.9884    -3.7447 C.ar    
  23 C23           -5.3467    -4.9768    -4.5810 C.ar    
  24 C24           -6.3807    -5.8064    -4.1625 C.ar    
  25 C25           -6.9393    -5.6413    -2.9003 C.ar    
  26 C26           -6.4646    -4.6582    -2.0585 C.ar    
  27 N27           -6.8588    -6.8061    -5.0109 N.3     
  28 C28           -5.7736    -7.7034    -5.4316 C.3     
  29 C29           -6.3223    -8.7344    -6.4207 C.3     
  30 N30           -7.4096    -9.4903    -5.7835 N.3     
  31 C31           -8.4948    -8.5931    -5.3629 C.3     
  32 C32           -7.9461    -7.5620    -4.3738 C.3     
  33 C33           -0.5315     1.6972     1.2731 C.ar    
  34 C34           -1.1800     1.5128     2.4799 C.ar    
  35 C35           -0.4479     1.2862     3.6304 C.ar    
  36 C36            0.9327     1.2435     3.5740 C.ar    
  37 C37            1.5811     1.4270     2.3671 C.ar    
  38 C38            0.8489     1.6494     1.2158 C.ar    
  39 H39           -0.4680     4.3947     0.4166 H       
  40 H40           -5.0035     7.0913     0.5653 H       
  41 H41           -3.2455     8.9087     0.9155 H       
  42 H42           -2.7644     0.0242     1.6902 H       
  43 H43           -3.9627     1.1677     1.0192 H       
  44 H44           -5.4385    -1.4841     1.5165 H       
  45 H45           -6.2795    -3.2453     0.0171 H       
  46 H46           -3.4605    -2.0493    -2.9790 H       
  47 H47           -4.0704    -3.3436    -4.0704 H       
  48 H48           -4.9142    -5.1064    -5.5621 H       
  49 H49           -7.7430    -6.2865    -2.5773 H       
  50 H50           -6.8959    -4.5332    -1.0763 H       
  51 H51           -4.9865    -7.1219    -5.9116 H       
  52 H52           -5.3672    -8.2161    -4.5598 H       
  53 H53           -6.7041    -8.2233    -7.3045 H       
  54 H54           -5.5256    -9.4189    -6.7118 H       
  55 H55           -7.7553   -10.2131    -6.3969 H       
  56 H56           -8.9012    -8.0803    -6.2346 H       
  57 H57           -9.2819    -9.1745    -4.8828 H       
  58 H58           -7.5644    -8.0732    -3.4900 H       
  59 H59           -8.7429    -6.8775    -4.0826 H       
  60 H60           -2.2585     1.5462     2.5240 H       
  61 H61           -0.9545     1.1428     4.5734 H       
  62 H62            1.5046     1.0671     4.4730 H       
  63 H63            2.6597     1.3940     2.3231 H       
  64 H64            1.3553     1.7890     0.2722 H       
@<TRIPOS>BOND
   1    1    2 2
   2    2    3 am
   3    2    9 1
   4    3    4 1
   5    3   39 1
   6    4    8 1
   7    4    5 2
   8    5    6 1
   9    6    7 2
  10    6   40 1
  11    7    8 1
  12    7   41 1
  13    9   10 1
  14    9   11 1
  15    9   33 1
  16   11   19 am
  17   11   12 1
  18   12   13 1
  19   12   42 1
  20   12   43 1
  21   13   18 ar
  22   13   14 ar
  23   14   15 ar
  24   14   44 1
  25   15   16 ar
  26   15   45 1
  27   16   17 ar
  28   16   21 1
  29   17   18 ar
  30   17   46 1
  31   18   19 1
  32   19   20 2
  33   21   26 ar
  34   21   22 ar
  35   22   23 ar
  36   22   47 1
  37   23   24 ar
  38   23   48 1
  39   24   25 ar
  40   24   27 1
  41   25   26 ar
  42   25   49 1
  43   26   50 1
  44   27   32 1
  45   27   28 1
  46   28   29 1
  47   28   51 1
  48   28   52 1
  49   29   30 1
  50   29   53 1
  51   29   54 1
  52   30   31 1
  53   30   55 1
  54   31   32 1
  55   31   56 1
  56   31   57 1
  57   32   58 1
  58   32   59 1
  59   33   38 ar
  60   33   34 ar
  61   34   35 ar
  62   34   60 1
  63   35   36 ar
  64   35   61 1
  65   36   37 ar
  66   36   62 1
  67   37   38 ar
  68   37   63 1
  69   38   64 1

#	End of record

