#	Name: ASD03331786
#	Creating user name:	WinNT
#	Creation time:	15. 06. 2019 20:39

#	Modifying user name:	WinNT
#	Modification time:	15. 06. 2019 20:39

#	Program:	/corina/corina34_cracker 3.40 0067  02.08.2006

@<TRIPOS>MOLECULE
ASD03331786
  55   58    0    0    0
SMALL
NO_CHARGES


@<TRIPOS>ATOM
   1 C1             0.2461     1.4649    -0.2491 C.3     
   2 O2             0.1943     0.0398    -0.1739 O.3     
   3 C3            -0.9963    -0.5193     0.1618 C.ar    
   4 C4            -1.8301     0.1623     1.0590 C.ar    
   5 C5            -1.3730     1.4590     1.6008 C.2     
   6 C6            -0.3734     2.0813     0.9775 C.2     
   7 C7            -1.3843    -1.7407    -0.3670 C.ar    
   8 C8            -2.6040    -2.2931    -0.0152 C.ar    
   9 C9            -3.4480    -1.6156     0.8750 C.ar    
  10 C10           -3.0640    -0.3809     1.4259 C.ar    
  11 C11           -4.7608    -2.1645     1.2562 C.2     
  12 C12           -5.6695    -1.2334     1.9538 C.2     
  13 C13           -5.1530    -0.0679     2.4220 C.2     
  14 O14           -3.8670     0.2599     2.2944 O.3     
  15 C15           -7.1044    -1.5610     2.1375 C.ar    
  16 C16           -7.9422    -1.6720     1.0297 C.ar    
  17 C17           -9.2778    -1.9769     1.2015 C.ar    
  18 C18           -9.7884    -2.1727     2.4750 C.ar    
  19 C19           -8.9558    -2.0625     3.5860 C.ar    
  20 C20           -7.6157    -1.7638     3.4185 C.ar    
  21 C21            1.7054     1.9120    -0.3565 C.3     
  22 C22           -0.5179     1.9330    -1.4892 C.3     
  23 O23           -2.9821    -3.4890    -0.5322 O.3     
  24 O24           -9.4591    -2.2541     4.8348 O.3     
  25 O25          -11.1047    -2.4724     2.6401 O.3     
  26 C26           -0.4775    -2.4677    -1.3264 C.3     
  27 C27            0.4427    -3.3786    -0.5554 C.2     
  28 C28            0.5050    -4.6525    -0.8546 C.2     
  29 C29           -0.4365    -5.2330    -1.8781 C.3     
  30 C30            1.5182    -5.5373    -0.1753 C.3     
  31 O31           -5.0773    -3.3160     1.0106 O.2     
  32 H32           -1.8360     1.8899     2.4763 H       
  33 H33           -0.0081     3.0265     1.3510 H       
  34 H34           -5.8144     0.6253     2.9204 H       
  35 H35           -7.5468    -1.5192     0.0364 H       
  36 H36           -9.9259    -2.0626     0.3419 H       
  37 H37           -6.9688    -1.6784     4.2791 H       
  38 H38            2.1519     1.4825    -1.2534 H       
  39 H39            1.7488     2.9996    -0.4141 H       
  40 H40            2.2550     1.5724     0.5213 H       
  41 H41           -1.5561     1.6085    -1.4204 H       
  42 H42           -0.4804     3.0207    -1.5499 H       
  43 H43           -0.0613     1.5035    -2.3809 H       
  44 H44           -2.7080    -4.2506    -0.0031 H       
  45 H45           -9.4159    -3.1707     5.1400 H       
  46 H46          -11.2964    -3.4202     2.6312 H       
  47 H47           -1.0786    -3.0586    -2.0174 H       
  48 H48            0.1138    -1.7436    -1.8869 H       
  49 H49            1.0508    -2.9812     0.2438 H       
  50 H50           -0.0219    -5.0894    -2.8759 H       
  51 H51           -0.5670    -6.2985    -1.6887 H       
  52 H52           -1.4017    -4.7310    -1.8100 H       
  53 H53            1.3455    -5.5278     0.9009 H       
  54 H54            1.4200    -6.5562    -0.5500 H       
  55 H55            2.5220    -5.1681    -0.3854 H       
@<TRIPOS>BOND
   1    1    2 1
   2    1   21 1
   3    1   22 1
   4    1    6 1
   5    2    3 1
   6    3    4 ar
   7    3    7 ar
   8    4    5 1
   9    4   10 ar
  10    5    6 2
  11    5   32 1
  12    6   33 1
  13    7    8 ar
  14    7   26 1
  15    8    9 ar
  16    8   23 1
  17    9   10 ar
  18    9   11 1
  19   10   14 1
  20   11   12 1
  21   11   31 2
  22   12   13 2
  23   12   15 1
  24   13   14 1
  25   13   34 1
  26   15   16 ar
  27   15   20 ar
  28   16   17 ar
  29   16   35 1
  30   17   18 ar
  31   17   36 1
  32   18   19 ar
  33   18   25 1
  34   19   20 ar
  35   19   24 1
  36   20   37 1
  37   21   38 1
  38   21   39 1
  39   21   40 1
  40   22   41 1
  41   22   42 1
  42   22   43 1
  43   23   44 1
  44   24   45 1
  45   25   46 1
  46   26   27 1
  47   26   47 1
  48   26   48 1
  49   27   28 2
  50   27   49 1
  51   28   29 1
  52   28   30 1
  53   29   50 1
  54   29   51 1
  55   29   52 1
  56   30   53 1
  57   30   54 1
  58   30   55 1

#	End of record

