#	Name: ASD04590111
#	Creating user name:	WinNT
#	Creation time:	15. 06. 2019 20:50

#	Modifying user name:	WinNT
#	Modification time:	15. 06. 2019 20:50

#	Program:	/corina/corina34_cracker 3.40 0067  02.08.2006

@<TRIPOS>MOLECULE
ASD04590111
  51   54    0    0    0
SMALL
NO_CHARGES


@<TRIPOS>ATOM
   1 N1            -0.0652     1.2612     0.2274 N.pl3   
   2 N2            -0.0059    -0.0069     0.0454 N.2     
   3 C3             1.1032    -0.4986     0.5615 C.2     
   4 C4             1.8213     0.6431     1.1421 C.2     
   5 C5             1.0164     1.7180     0.8887 C.2     
   6 C6             1.5349    -1.9094     0.5570 C.2     
   7 O7             2.5896    -2.2242     1.0740 O.2     
   8 N8             0.7603    -2.8493    -0.0201 N.am    
   9 C9             1.2197    -4.1686    -0.1239 C.ar    
  10 C10            0.3263    -5.2258    -0.0118 C.ar    
  11 C11            0.7790    -6.5260    -0.1141 C.ar    
  12 C12            2.1280    -6.7767    -0.3295 C.ar    
  13 C13            3.0214    -5.7193    -0.4421 C.ar    
  14 C14            2.5677    -4.4190    -0.3446 C.ar    
  15 C15            3.1271     0.6320     1.8460 C.ar    
  16 C16            4.1273     1.5285     1.4768 C.ar    
  17 C17            3.3547    -0.2715     2.8824 C.ar    
  18 C18            4.5708    -0.2799     3.5360 C.ar    
  19 C19            5.5647     0.6063     3.1657 C.ar    
  20 C20            5.3442     1.5131     2.1378 C.ar    
  21 N21            2.5869    -8.0942    -0.4327 N.3     
  22 C22            4.0385    -8.1301    -0.6589 C.3     
  23 C23            4.5120    -9.5853    -0.6864 C.3     
  24 N24            3.7985   -10.3099    -1.7473 N.3     
  25 C25            2.3469   -10.2740    -1.5211 C.3     
  26 C26            1.8734    -8.8189    -1.4936 C.3     
  27 C27            4.2804   -11.6934    -1.8556 C.3     
  28 O28            6.3245     2.3824     1.7768 O.3     
  29 H29           -0.7957     1.8222    -0.0767 H       
  30 H30            1.2110     2.7433     1.1669 H       
  31 H31           -0.1153    -2.6123    -0.3636 H       
  32 H32           -0.7227    -5.0308     0.1557 H       
  33 H33            0.0842    -7.3482    -0.0262 H       
  34 H34            4.0704    -5.9141    -0.6093 H       
  35 H35            3.2618    -3.5966    -0.4359 H       
  36 H36            3.9543     2.2334     0.6770 H       
  37 H37            2.5797    -0.9648     3.1745 H       
  38 H38            4.7458    -0.9806     4.3389 H       
  39 H39            6.5142     0.5961     3.6803 H       
  40 H40            4.2699    -7.6543    -1.6119 H       
  41 H41            4.5452    -7.5980     0.1462 H       
  42 H42            5.5837    -9.6153    -0.8829 H       
  43 H43            4.3052   -10.0533     0.2761 H       
  44 H44            1.8401   -10.8062    -2.3262 H       
  45 H45            2.1155   -10.7498    -0.5681 H       
  46 H46            0.8017    -8.7888    -1.2971 H       
  47 H47            2.0802    -8.3509    -2.4561 H       
  48 H48            4.1180   -12.2098    -0.9096 H       
  49 H49            3.7357   -12.2068    -2.6480 H       
  50 H50            5.3449   -11.6901    -2.0897 H       
  51 H51            6.9142     2.0463     1.0881 H       
@<TRIPOS>BOND
   1    1    2 1
   2    1    5 1
   3    1   29 1
   4    2    3 2
   5    3    4 1
   6    3    6 1
   7    4    5 2
   8    4   15 1
   9    5   30 1
  10    6    7 2
  11    6    8 am
  12    8    9 1
  13    8   31 1
  14    9   10 ar
  15    9   14 ar
  16   10   11 ar
  17   10   32 1
  18   11   12 ar
  19   11   33 1
  20   12   13 ar
  21   12   21 1
  22   13   14 ar
  23   13   34 1
  24   14   35 1
  25   15   16 ar
  26   15   17 ar
  27   16   20 ar
  28   16   36 1
  29   17   18 ar
  30   17   37 1
  31   18   19 ar
  32   18   38 1
  33   19   20 ar
  34   19   39 1
  35   20   28 1
  36   21   22 1
  37   21   26 1
  38   22   23 1
  39   22   40 1
  40   22   41 1
  41   23   24 1
  42   23   42 1
  43   23   43 1
  44   24   25 1
  45   24   27 1
  46   25   26 1
  47   25   44 1
  48   25   45 1
  49   26   46 1
  50   26   47 1
  51   27   48 1
  52   27   49 1
  53   27   50 1
  54   28   51 1

#	End of record

