#	Name: ASD01820179
#	Creating user name:	WinNT
#	Creation time:	15. 06. 2019 19:36

#	Modifying user name:	WinNT
#	Modification time:	15. 06. 2019 19:36

#	Program:	/corina/corina34_cracker 3.40 0067  02.08.2006

@<TRIPOS>MOLECULE
ASD01820179
  84   87    0    0    0
SMALL
NO_CHARGES


@<TRIPOS>ATOM
   1 C1            -0.0170     1.4058     0.0098 C.ar    
   2 C2             0.0021    -0.0041     0.0020 C.ar    
   3 C3            -1.4136    -0.4276     0.0138 C.2     
   4 N4            -2.1896     0.6711     0.0273 N.am    
   5 C5            -1.4436     1.7905     0.0314 C.2     
   6 C6            -3.6544     0.6512     0.0417 C.3     
   7 C7            -4.1500     0.6365     1.4892 C.3     
   8 C8            -5.6798     0.6157     1.5042 C.3     
   9 N9            -6.1557     0.6016     2.8939 N.4     
  10 C10           -7.6245     0.5816     2.9084 C.3     
  11 C11           -8.1201     0.5670     4.3558 C.3     
  12 C12           -9.6499     0.5461     4.3708 C.3     
  13 C13          -10.1455     0.5315     5.8183 C.3     
  14 C14          -11.6753     0.5106     5.8333 C.3     
  15 C15          -12.1710     0.4960     7.2807 C.3     
  16 N16          -13.6398     0.4760     7.2952 N.4     
  17 C17          -14.1156     0.4619     8.6849 C.3     
  18 C18          -15.6454     0.4411     8.6999 C.3     
  19 N19          -17.6059     0.4065    10.1618 N.am    
  20 O20           -1.8711     2.9273     0.0434 O.2     
  21 O21           -1.8101    -1.5755     0.0112 O.2     
  22 C22          -16.1411     0.4264    10.1473 C.3     
  23 C23          -18.3518    -0.7130    10.1631 C.2     
  24 C24          -19.7784    -0.3282    10.1802 C.ar    
  25 C25          -19.7975     1.0817    10.1885 C.ar    
  26 C26          -18.3818     1.5051    10.1812 C.2     
  27 C27          -20.9707    -1.0343    10.1891 C.ar    
  28 C28          -22.1761    -0.3484    10.2060 C.ar    
  29 C29          -22.1949     1.0365    10.2141 C.ar    
  30 C30          -21.0085     1.7550    10.2057 C.ar    
  31 O31          -17.9243    -1.8497    10.1522 O.2     
  32 O32          -17.9853     2.6531    10.1857 O.2     
  33 C33          -14.1525     1.6723     6.6141 C.3     
  34 C34          -14.1200    -0.7263     6.6009 C.3     
  35 C35           -5.6430    -0.5947     3.5750 C.3     
  36 C36           -5.6755     1.8039     3.5881 C.3     
  37 C37            1.1752     2.1118     0.0022 C.ar    
  38 C38            2.3807     1.4259    -0.0130 C.ar    
  39 C39            2.3994     0.0410    -0.0211 C.ar    
  40 C40            1.2130    -0.6774    -0.0136 C.ar    
  41 Cl41           3.8753     2.3089    -0.0225 Cl      
  42 Cl42           3.9175    -0.8009    -0.0407 Cl      
  43 Cl43         -23.6708    -1.2313    10.2165 Cl      
  44 Cl44         -23.7129     1.8785    10.2352 Cl      
  45 H45           -4.0348     1.5389    -0.4636 H       
  46 H46           -4.0107    -0.2409    -0.4734 H       
  47 H47           -3.7696    -0.2512     1.9945 H       
  48 H48           -3.7937     1.5286     2.0043 H       
  49 H49           -6.0603     1.5034     0.9989 H       
  50 H50           -6.0361    -0.2764     0.9891 H       
  51 H51           -8.0049     1.4693     2.4030 H       
  52 H52           -7.9808    -0.3104     2.3933 H       
  53 H53           -7.7397    -0.3207     4.8611 H       
  54 H54           -7.7638     1.4590     4.8709 H       
  55 H55          -10.0304     1.4338     3.8655 H       
  56 H56          -10.0062    -0.3459     3.8557 H       
  57 H57           -9.7651    -0.3562     6.3236 H       
  58 H58           -9.7892     1.4235     6.3334 H       
  59 H59          -12.0558     1.3983     5.3280 H       
  60 H60          -12.0316    -0.3814     5.3182 H       
  61 H61          -11.7905    -0.3917     7.7861 H       
  62 H62          -11.8147     1.3881     7.7958 H       
  63 H63          -13.7352    -0.4258     9.1902 H       
  64 H64          -13.7593     1.3540     9.2000 H       
  65 H65          -16.0259     1.3288     8.1946 H       
  66 H66          -16.0017    -0.4510     8.1848 H       
  67 H67          -15.7606    -0.4613    10.6527 H       
  68 H68          -15.7848     1.3185    10.6625 H       
  69 H69          -20.9614    -2.1142    10.1824 H       
  70 H70          -21.0284     2.8348    10.2123 H       
  71 H71          -13.7994     1.6828     5.5829 H       
  72 H72          -15.2423     1.6575     6.6248 H       
  73 H73          -13.7962     2.5644     7.1292 H       
  74 H74          -13.7395    -1.6140     7.1063 H       
  75 H75          -15.2098    -0.7411     6.6117 H       
  76 H76          -13.7669    -0.7158     5.5698 H       
  77 H77           -4.5531    -0.5799     3.5642 H       
  78 H78           -5.9961    -0.6052     4.6061 H       
  79 H79           -5.9993    -1.4868     3.0599 H       
  80 H80           -6.0559     2.6916     3.0828 H       
  81 H81           -6.0286     1.7934     4.6193 H       
  82 H82           -4.5857     1.8187     3.5774 H       
  83 H83            1.1659     3.1918     0.0077 H       
  84 H84            1.2330    -1.7572    -0.0196 H       
@<TRIPOS>BOND
   1    1    2 ar
   2    1   37 ar
   3    1    5 1
   4    2    3 1
   5    2   40 ar
   6    3    4 am
   7    3   21 2
   8    4    5 am
   9    4    6 1
  10    5   20 2
  11    6    7 1
  12    6   45 1
  13    6   46 1
  14    7    8 1
  15    7   47 1
  16    7   48 1
  17    8    9 1
  18    8   49 1
  19    8   50 1
  20    9   10 1
  21    9   35 1
  22    9   36 1
  23   10   11 1
  24   10   51 1
  25   10   52 1
  26   11   12 1
  27   11   53 1
  28   11   54 1
  29   12   13 1
  30   12   55 1
  31   12   56 1
  32   13   14 1
  33   13   57 1
  34   13   58 1
  35   14   15 1
  36   14   59 1
  37   14   60 1
  38   15   16 1
  39   15   61 1
  40   15   62 1
  41   16   17 1
  42   16   33 1
  43   16   34 1
  44   17   18 1
  45   17   63 1
  46   17   64 1
  47   18   22 1
  48   18   65 1
  49   18   66 1
  50   19   23 am
  51   19   22 1
  52   19   26 am
  53   22   67 1
  54   22   68 1
  55   23   24 1
  56   23   31 2
  57   24   25 ar
  58   24   27 ar
  59   25   26 1
  60   25   30 ar
  61   26   32 2
  62   27   28 ar
  63   27   69 1
  64   28   29 ar
  65   28   43 1
  66   29   30 ar
  67   29   44 1
  68   30   70 1
  69   33   71 1
  70   33   72 1
  71   33   73 1
  72   34   74 1
  73   34   75 1
  74   34   76 1
  75   35   77 1
  76   35   78 1
  77   35   79 1
  78   36   80 1
  79   36   81 1
  80   36   82 1
  81   37   38 ar
  82   37   83 1
  83   38   39 ar
  84   38   41 1
  85   39   40 ar
  86   39   42 1
  87   40   84 1

#	End of record

