#	Name: ASD07301106
#	Creating user name:	WinNT
#	Creation time:	15. 06. 2019 21:10

#	Modifying user name:	WinNT
#	Modification time:	15. 06. 2019 21:10

#	Program:	/corina/corina34_cracker 3.40 0067  02.08.2006

@<TRIPOS>MOLECULE
ASD07301106
  27   28    0    0    0
SMALL
NO_CHARGES


@<TRIPOS>ATOM
   1 N1            -0.0169     1.3974     0.0097 N.pl3   
   2 C2             0.0021    -0.0041     0.0020 C.ar    
   3 C3             1.2156    -0.6829    -0.0132 C.ar    
   4 C4             1.2331    -2.0663    -0.0203 C.ar    
   5 C5             0.0371    -2.7757    -0.0122 C.ar    
   6 C6            -1.1724    -2.0963     0.0030 C.ar    
   7 C7            -1.1898    -0.7141     0.0154 C.ar    
   8 N8             0.0536    -4.1772    -0.0199 N.3     
   9 C9            -0.6146    -4.7185     1.1725 C.3     
  10 C10           -0.6266    -6.2474     1.0944 C.3     
  11 O11            0.7156    -6.7235     0.9628 O.3     
  12 C12            1.3960    -6.2167    -0.1885 C.3     
  13 C13            1.4285    -4.6874    -0.1233 C.3     
  14 F14            2.4112    -2.7274    -0.0356 F       
  15 F15            2.3766     0.0079    -0.0215 F       
  16 H16            0.8164     1.8938     0.0044 H       
  17 H17           -0.8635     1.8709     0.0163 H       
  18 H18           -2.1010    -2.6477     0.0092 H       
  19 H19           -2.1320    -0.1864     0.0317 H       
  20 H20           -0.0755    -4.4039     2.0661 H       
  21 H21           -1.6389    -4.3482     1.2154 H       
  22 H22           -1.0699    -6.6549     2.0030 H       
  23 H23           -1.2111    -6.5631     0.2303 H       
  24 H24            2.4155    -6.6019    -0.2076 H       
  25 H25            0.8703    -6.5315    -1.0899 H       
  26 H26            1.8955    -4.2945    -1.0264 H       
  27 H27            2.0002    -4.3724     0.7496 H       
@<TRIPOS>BOND
   1    1    2 1
   2    1   16 1
   3    1   17 1
   4    2    3 ar
   5    2    7 ar
   6    3    4 ar
   7    3   15 1
   8    4    5 ar
   9    4   14 1
  10    5    6 ar
  11    5    8 1
  12    6    7 ar
  13    6   18 1
  14    7   19 1
  15    8    9 1
  16    8   13 1
  17    9   10 1
  18    9   20 1
  19    9   21 1
  20   10   11 1
  21   10   22 1
  22   10   23 1
  23   11   12 1
  24   12   13 1
  25   12   24 1
  26   12   25 1
  27   13   26 1
  28   13   27 1

#	End of record

