#	Name: ASD01917336
#	Creating user name:	WinNT
#	Creation time:	15. 06. 2019 20:09

#	Modifying user name:	WinNT
#	Modification time:	15. 06. 2019 20:09

#	Program:	/corina/corina34_cracker 3.40 0067  02.08.2006

@<TRIPOS>MOLECULE
ASD01917336
  51   54    0    0    0
SMALL
NO_CHARGES


@<TRIPOS>ATOM
   1 C1            -1.0527     0.9636     0.4153 C.ar    
   2 C2            -1.3477    -0.3990     0.4433 C.ar    
   3 N3             0.2116     1.3681     0.4971 N.ar    
   4 N4            -0.3709    -1.2815     0.5510 N.ar    
   5 C5             0.8835    -0.8741     0.6319 C.ar    
   6 C6             1.1803     0.4808     0.6043 C.ar    
   7 C7            -2.1440     1.9575     0.2886 C.2     
   8 O8            -3.2982     1.5858     0.2089 O.2     
   9 N9            -1.8567     3.2740     0.2617 N.am    
  10 C10           -2.9358     4.2569     0.1364 C.3     
  11 C11           -2.4200     5.7063     0.1668 C.3     
  12 C12           -3.5661     6.6512    -0.1999 C.3     
  13 C13           -4.7564     6.4322     0.7359 C.3     
  14 C14           -5.1716     4.9515     0.6809 C.3     
  15 C15           -5.1993     4.5335    -0.8074 C.3     
  16 C16           -3.7512     4.0830    -1.1657 C.3     
  17 C17           -3.9900     4.1354     1.2683 C.3     
  18 C18           -1.9191     6.0343     1.5498 C.2     
  19 O19           -2.5261     6.8221     2.2435 O.2     
  20 N20           -0.7964     5.4520     2.0155 N.am    
  21 C21           -0.2760     5.8326     3.2428 C.2     
  22 C22            0.9524     5.1811     3.7301 C.2     
  23 C23            1.2837     5.2957     5.0397 C.2     
  24 C24            0.3795     6.0916     5.8869 C.2     
  25 C25           -0.3895     7.2114     5.2221 C.3     
  26 N26           -0.8818     6.7530     3.9225 N.2     
  27 O27            0.2560     5.8579     7.0709 O.2     
  28 C28            2.6130     0.9389     0.6965 C.3     
  29 H29           -2.3730    -0.7320     0.3776 H       
  30 H30            1.6800    -1.5981     0.7198 H       
  31 H31           -0.9354     3.5708     0.3253 H       
  32 H32           -1.6092     5.8200    -0.5527 H       
  33 H33           -3.2246     7.6827    -0.1138 H       
  34 H34           -3.8755     6.4610    -1.2276 H       
  35 H35           -4.4719     6.6935     1.7552 H       
  36 H36           -5.5907     7.0570     0.4172 H       
  37 H37           -6.1185     4.7640     1.1872 H       
  38 H38           -5.8942     3.7061    -0.9512 H       
  39 H39           -5.4904     5.3802    -1.4290 H       
  40 H40           -3.3433     4.7194    -1.9510 H       
  41 H41           -3.7347     3.0400    -1.4817 H       
  42 H42           -4.2648     3.0941     1.4363 H       
  43 H43           -3.6305     4.5964     2.1883 H       
  44 H44           -0.3525     4.7666     1.4920 H       
  45 H45            1.5799     4.6198     3.0536 H       
  46 H46            2.1685     4.8254     5.4426 H       
  47 H47           -1.2312     7.4994     5.8519 H       
  48 H48            0.2680     8.0686     5.0767 H       
  49 H49            2.8803     1.0876     1.7427 H       
  50 H50            3.2650     0.1829     0.2588 H       
  51 H51            2.7300     1.8773     0.1546 H       
@<TRIPOS>BOND
   1    1    2 ar
   2    1    3 ar
   3    1    7 1
   4    2    4 ar
   5    2   29 1
   6    3    6 ar
   7    4    5 ar
   8    5    6 ar
   9    5   30 1
  10    6   28 1
  11    7    8 2
  12    7    9 am
  13    9   10 1
  14    9   31 1
  15   10   11 1
  16   10   16 1
  17   10   17 1
  18   11   12 1
  19   11   18 1
  20   11   32 1
  21   12   13 1
  22   12   33 1
  23   12   34 1
  24   13   14 1
  25   13   35 1
  26   13   36 1
  27   14   15 1
  28   14   17 1
  29   14   37 1
  30   15   16 1
  31   15   38 1
  32   15   39 1
  33   16   40 1
  34   16   41 1
  35   17   42 1
  36   17   43 1
  37   18   19 2
  38   18   20 am
  39   20   21 1
  40   20   44 1
  41   21   22 1
  42   21   26 2
  43   22   23 2
  44   22   45 1
  45   23   24 1
  46   23   46 1
  47   24   25 1
  48   24   27 2
  49   25   26 1
  50   25   47 1
  51   25   48 1
  52   28   49 1
  53   28   50 1
  54   28   51 1

#	End of record

