#	Name: ASD03430858
#	Creating user name:	WinNT
#	Creation time:	15. 06. 2019 20:41

#	Modifying user name:	WinNT
#	Modification time:	15. 06. 2019 20:41

#	Program:	/corina/corina34_cracker 3.40 0067  02.08.2006

@<TRIPOS>MOLECULE
ASD03430858
  29   32    0    0    0
SMALL
NO_CHARGES


@<TRIPOS>ATOM
   1 C1            -0.0167     1.3796     0.0096 C.ar    
   2 C2             0.0021    -0.0041     0.0020 C.ar    
   3 C3             1.1658     2.0911     0.0022 C.ar    
   4 C4             2.3875     1.4242    -0.0136 C.ar    
   5 C5             2.3945     0.0321    -0.0128 C.ar    
   6 C6             1.2114    -0.6746    -0.0090 C.ar    
   7 O7             3.6547     1.9248    -0.0433 O.3     
   8 C8             3.8395    -0.3889    -0.0055 C.3     
   9 C9             4.5803     0.9017     0.3712 C.3     
  10 N10            4.6366    -2.5133     0.2716 N.am    
  11 C11            4.1070    -1.4933     0.9761 C.2     
  12 C12            4.2850    -0.9219    -1.3350 C.ar    
  13 C13            4.3032    -0.4029    -2.6099 C.ar    
  14 C14            4.7884    -1.1622    -3.6604 C.ar    
  15 C15            5.2547    -2.4425    -3.4261 C.ar    
  16 C16            5.2398    -2.9667    -2.1499 C.ar    
  17 C17            4.7535    -2.2100    -1.0870 C.ar    
  18 O18            3.8897    -1.4717     2.1692 O.2     
  19 Br19          -1.6691     2.2990     0.0225 Br      
  20 H20           -0.9248    -0.5585     0.0050 H       
  21 H21            1.1431     3.1708     0.0082 H       
  22 H22            1.2288    -1.7544    -0.0147 H       
  23 H23            5.5187     0.9835    -0.1771 H       
  24 H24            4.7534     0.9489     1.4463 H       
  25 H25            4.9053    -3.3594     0.6626 H       
  26 H26            3.9382     0.5974    -2.7905 H       
  27 H27            4.8023    -0.7556    -4.6608 H       
  28 H28            5.6327    -3.0351    -4.2461 H       
  29 H29            5.6063    -3.9674    -1.9748 H       
@<TRIPOS>BOND
   1    1    2 ar
   2    1    3 ar
   3    1   19 1
   4    2    6 ar
   5    2   20 1
   6    3    4 ar
   7    3   21 1
   8    4    5 ar
   9    4    7 1
  10    5    6 ar
  11    5    8 1
  12    6   22 1
  13    7    9 1
  14    8    9 1
  15    8   11 1
  16    8   12 1
  17    9   23 1
  18    9   24 1
  19   10   11 am
  20   10   17 1
  21   10   25 1
  22   11   18 2
  23   12   13 ar
  24   12   17 ar
  25   13   14 ar
  26   13   26 1
  27   14   15 ar
  28   14   27 1
  29   15   16 ar
  30   15   28 1
  31   16   17 ar
  32   16   29 1

#	End of record

