#	Name: ASD01000150
#	Creating user name:	WinNT
#	Creation time:	15. 06. 2019 18:54

#	Modifying user name:	WinNT
#	Modification time:	15. 06. 2019 18:54

#	Program:	/corina/corina34_cracker 3.40 0067  02.08.2006

@<TRIPOS>MOLECULE
ASD01000150
  55   58    0    0    0
SMALL
NO_CHARGES


@<TRIPOS>ATOM
   1 C1             0.0868     1.4292    -0.2908 C.ar    
   2 C2            -2.4915    -0.3620    -0.2817 C.ar    
   3 C3            -0.0105    -0.0175     0.0006 C.3     
   4 C4             0.7194     4.0534    -0.9488 C.ar    
   5 C5            -0.5774     3.6186    -0.8672 C.ar    
   6 C6            -0.9022     2.2921    -0.4981 C.ar    
   7 C7             1.4260     1.8718    -0.3487 C.ar    
   8 C8             1.7440     3.1675    -0.6676 C.ar    
   9 C9            -3.5864    -1.2308    -0.0561 C.ar    
  10 C10           -3.4176    -2.5060     0.4153 C.ar    
  11 C11           -2.1391    -2.9627     0.6801 C.ar    
  12 C12           -1.0819    -2.1100     0.4838 C.ar    
  13 C13           -1.2725    -0.7903     0.0227 C.ar    
  14 C14            0.8928    -0.7100    -0.9870 C.ar    
  15 C15            0.6588    -0.5821    -2.3437 C.ar    
  16 C16            1.4854    -1.2159    -3.2512 C.ar    
  17 C17            2.5510    -1.9813    -2.8001 C.ar    
  18 C18            2.7836    -2.1080    -1.4384 C.ar    
  19 C19            1.9575    -1.4676    -0.5351 C.ar    
  20 S20            0.7649    -0.2640     1.6219 S.3     
  21 C21           -0.3369     0.6412     2.7431 C.3     
  22 C22            0.1073     0.4127     4.1893 C.3     
  23 C23           -0.8081     1.1647     5.1208 C.2     
  24 N24            0.0493    -1.0222     4.4985 N.3     
  25 O25           -0.6365     2.4822     5.3115 O.3     
  26 O26           -1.6964     0.5816     5.6958 O.2     
  27 C27           -2.4032     2.1700    -0.3401 C.3     
  28 C28           -2.9933     0.9190    -0.9109 C.3     
  29 O29            3.3653    -2.6061    -3.6908 O.3     
  30 C30            4.4425    -3.3772    -3.1549 C.3     
  31 H31            0.9386     5.0732    -1.2286 H       
  32 H32           -1.3762     4.3099    -1.0915 H       
  33 H33            2.2208     1.1722    -0.1361 H       
  34 H34            2.7743     3.4899    -0.6983 H       
  35 H35           -4.5859    -0.8771    -0.2617 H       
  36 H36           -4.2719    -3.1463     0.5784 H       
  37 H37           -1.9762    -3.9698     1.0345 H       
  38 H38           -0.0799    -2.4575     0.6875 H       
  39 H39           -0.1711     0.0135    -2.6943 H       
  40 H40            1.3020    -1.1160    -4.3108 H       
  41 H41            3.6125    -2.7033    -1.0848 H       
  42 H42            2.1410    -1.5621     0.5250 H       
  43 H43           -0.2939     1.7059     2.5137 H       
  44 H44           -1.3586     0.2831     2.6160 H       
  45 H45            1.1290     0.7707     4.3164 H       
  46 H46           -0.8883    -1.3783     4.3880 H       
  47 H47            0.7024    -1.5411     3.9308 H       
  48 H48           -1.2483     2.9213     5.9182 H       
  49 H49           -2.6422     2.2100     0.7227 H       
  50 H50           -2.8716     3.0253    -0.8270 H       
  51 H51           -2.7715     0.8889    -1.9777 H       
  52 H52           -4.0757     0.9617    -0.7891 H       
  53 H53            5.0128    -3.8210    -3.9709 H       
  54 H54            5.0936    -2.7315    -2.5657 H       
  55 H55            4.0427    -4.1673    -2.5193 H       
@<TRIPOS>BOND
   1    1    3 1
   2    1    7 ar
   3    1    6 ar
   4    2    9 ar
   5    2   13 ar
   6    2   28 1
   7    3   14 1
   8    3   20 1
   9    3   13 1
  10    4    5 ar
  11    4    8 ar
  12    4   31 1
  13    5    6 ar
  14    5   32 1
  15    6   27 1
  16    7    8 ar
  17    7   33 1
  18    8   34 1
  19    9   10 ar
  20    9   35 1
  21   10   11 ar
  22   10   36 1
  23   11   12 ar
  24   11   37 1
  25   12   13 ar
  26   12   38 1
  27   14   15 ar
  28   14   19 ar
  29   15   16 ar
  30   15   39 1
  31   16   17 ar
  32   16   40 1
  33   17   18 ar
  34   17   29 1
  35   18   19 ar
  36   18   41 1
  37   19   42 1
  38   20   21 1
  39   21   22 1
  40   21   43 1
  41   21   44 1
  42   22   23 1
  43   22   24 1
  44   22   45 1
  45   23   25 1
  46   23   26 2
  47   24   46 1
  48   24   47 1
  49   25   48 1
  50   27   28 1
  51   27   49 1
  52   27   50 1
  53   28   51 1
  54   28   52 1
  55   29   30 1
  56   30   53 1
  57   30   54 1
  58   30   55 1

#	End of record

