#	Name: ASD03091921
#	Creating user name:	WinNT
#	Creation time:	15. 06. 2019 20:31

#	Modifying user name:	WinNT
#	Modification time:	15. 06. 2019 20:31

#	Program:	/corina/corina34_cracker 3.40 0067  02.08.2006

@<TRIPOS>MOLECULE
ASD03091921
  57   61    0    0    0
SMALL
NO_CHARGES


@<TRIPOS>ATOM
   1 C1             0.0100     1.4306     0.1769 C.ar    
   2 C2            -1.1828     2.1755     0.1985 C.ar    
   3 C3            -2.4251     1.4946     0.1471 C.ar    
   4 C4            -2.4513     0.0879     0.0732 C.ar    
   5 C5            -1.2924    -0.6189     0.0527 C.ar    
   6 C6            -0.0536     0.0385     0.1044 C.ar    
   7 O7             1.2223     2.0283     0.2304 O.3     
   8 C8             2.2666     1.3312     0.9102 C.3     
   9 N9             2.3427    -0.0582     0.4562 N.am    
  10 C10            1.2168    -0.7134     0.0901 C.2     
  11 C11           -3.7720    -0.6357     0.0171 C.3     
  12 N12           -4.3866    -0.6372     1.3513 N.3     
  13 C13           -3.4415    -1.1214     2.3655 C.3     
  14 C14           -5.6248    -1.4267     1.3595 C.3     
  15 C15           -6.3114    -1.2870     2.7200 C.3     
  16 C16           -5.3634    -1.7785     3.8175 C.3     
  17 C17           -4.0629    -0.9727     3.7561 C.3     
  18 O18            1.2502    -1.8836    -0.2397 O.2     
  19 C19            3.6383    -0.7395     0.3978 C.3     
  20 C20            4.5627    -0.0312    -0.6139 C.3     
  21 C21            4.3389    -0.6580     1.7653 C.3     
  22 C22            5.6646     0.0971     1.5370 C.3     
  23 C23            5.4119     0.9292     0.2553 C.3     
  24 O24            4.6031    -1.9727     2.2591 O.3     
  25 C25           -5.9959    -1.5922     5.1335 C.1     
  26 N26           -6.4840    -1.4485     6.1492 N.1     
  27 C27           -1.1673     3.5776     0.2703 C.ar    
  28 C28           -2.3424     4.2657     0.2918 C.ar    
  29 C29           -3.5634     3.5973     0.2430 C.ar    
  30 C30           -3.6161     2.2384     0.1714 C.ar    
  31 H31           -1.3241    -1.6969    -0.0042 H       
  32 H32            3.2172     1.8262     0.7117 H       
  33 H33            2.0708     1.3483     1.9824 H       
  34 H34           -4.4333    -0.1307    -0.6870 H       
  35 H35           -3.6099    -1.6629    -0.3095 H       
  36 H36           -3.2151    -2.1712     2.1793 H       
  37 H37           -2.5226    -0.5373     2.3140 H       
  38 H38           -6.2917    -1.0642     0.5772 H       
  39 H39           -5.3882    -2.4751     1.1779 H       
  40 H40           -6.5607    -0.2407     2.8962 H       
  41 H41           -7.2223    -1.8856     2.7311 H       
  42 H42           -5.1448    -2.8352     3.6636 H       
  43 H43           -3.3673    -1.3466     4.5074 H       
  44 H44           -4.2768     0.0787     3.9486 H       
  45 H45            3.4990    -1.7819     0.1111 H       
  46 H46            5.2023    -0.7555    -1.1183 H       
  47 H47            3.9746     0.5305    -1.3397 H       
  48 H48            3.7149    -0.1115     2.4725 H       
  49 H49            5.8807     0.7523     2.3808 H       
  50 H50            6.4822    -0.6065     1.3799 H       
  51 H51            6.3521     1.1698    -0.2408 H       
  52 H52            4.8533     1.8360     0.4874 H       
  53 H53            5.0444    -1.9884     3.1194 H       
  54 H54           -0.2274     4.1082     0.3086 H       
  55 H55           -2.3273     5.3441     0.3478 H       
  56 H56           -4.4819     4.1652     0.2619 H       
  57 H57           -4.5706     1.7344     0.1338 H       
@<TRIPOS>BOND
   1    1    6 ar
   2    1    7 1
   3    1    2 ar
   4    2    3 ar
   5    2   27 ar
   6    3    4 ar
   7    3   30 ar
   8    4    5 ar
   9    4   11 1
  10    5    6 ar
  11    5   31 1
  12    6   10 1
  13    7    8 1
  14    8    9 1
  15    8   32 1
  16    8   33 1
  17    9   10 am
  18    9   19 1
  19   10   18 2
  20   11   12 1
  21   11   34 1
  22   11   35 1
  23   12   14 1
  24   12   13 1
  25   13   17 1
  26   13   36 1
  27   13   37 1
  28   14   15 1
  29   14   38 1
  30   14   39 1
  31   15   16 1
  32   15   40 1
  33   15   41 1
  34   16   17 1
  35   16   25 1
  36   16   42 1
  37   17   43 1
  38   17   44 1
  39   19   21 1
  40   19   20 1
  41   19   45 1
  42   20   23 1
  43   20   46 1
  44   20   47 1
  45   21   22 1
  46   21   24 1
  47   21   48 1
  48   22   23 1
  49   22   49 1
  50   22   50 1
  51   23   51 1
  52   23   52 1
  53   24   53 1
  54   25   26 3
  55   27   28 ar
  56   27   54 1
  57   28   29 ar
  58   28   55 1
  59   29   30 ar
  60   29   56 1
  61   30   57 1

#	End of record

