#	Name: ASD01885167
#	Creating user name:	WinNT
#	Creation time:	15. 06. 2019 19:49

#	Modifying user name:	WinNT
#	Modification time:	15. 06. 2019 19:49

#	Program:	/corina/corina34_cracker 3.40 0067  02.08.2006

@<TRIPOS>MOLECULE
ASD01885167
  55   58    0    0    0
SMALL
NO_CHARGES


@<TRIPOS>ATOM
   1 C1             1.6554     1.3929     1.0716 C.2     
   2 C2             1.7692    -0.0049     0.9833 C.2     
   3 C3             1.2611    -0.6474    -0.1129 C.2     
   4 C4             0.6340     0.1026    -1.1318 C.2     
   5 C5             0.5359     1.4422    -1.0265 C.2     
   6 N6             1.0392     2.0923     0.0624 N.pl3   
   7 C7             1.0867     3.4033     0.4359 C.2     
   8 N8             1.6933     3.4607     1.5920 N.2     
   9 N9             2.0295     2.2809     1.9800 N.2     
  10 C10            0.5396     4.5721    -0.3425 C.3     
  11 N11            1.3623    -2.0310    -0.2231 N.pl3   
  12 C12            0.1614    -2.8799    -0.1996 C.3     
  13 C13            0.2047    -3.8179    -1.4107 C.3     
  14 N14            1.4803    -4.5463    -1.4165 N.3     
  15 C15            2.6172    -3.6288    -1.5705 C.3     
  16 C16            2.6724    -2.6826    -0.3722 C.3     
  17 C17            1.4914    -5.5281    -2.4097 C.ar    
  18 C18            1.2481    -5.1820    -3.7326 C.ar    
  19 C19            1.2596    -6.1561    -4.7147 C.ar    
  20 C20            1.5130    -7.4757    -4.3797 C.ar    
  21 C21            1.7554    -7.8231    -3.0613 C.ar    
  22 C22            1.7514    -6.8512    -2.0768 C.ar    
  23 C23            3.9160    -4.4337    -1.6481 C.3     
  24 F24            1.0230    -5.8200    -6.0017 F       
  25 F25            2.0018    -9.1113    -2.7371 F       
  26 C26           -0.9134     4.8219     0.0666 C.3     
  27 C27           -1.6144     6.0451    -0.5280 C.3     
  28 C28           -1.9902     4.6408    -1.0051 C.3     
  29 C29            2.4428    -0.7865     2.0817 C.3     
  30 F30            3.7919    -0.9727     1.7617 F       
  31 F31            2.3422    -0.0807     3.2854 F       
  32 F32            1.8197    -2.0316     2.2177 F       
  33 H33            0.2317    -0.3997    -1.9991 H       
  34 H34            0.0543     2.0066    -1.8113 H       
  35 H35            1.1346     5.4603    -0.1304 H       
  36 H36            0.5839     4.3511    -1.4089 H       
  37 H37            0.1463    -3.4675     0.7183 H       
  38 H38           -0.7300    -2.2548    -0.2523 H       
  39 H39           -0.6197    -4.5284    -1.3500 H       
  40 H40            0.1152    -3.2337    -2.3265 H       
  41 H41            2.4941    -3.0473    -2.4842 H       
  42 H42            3.4418    -1.9282    -0.5364 H       
  43 H43            2.8979    -3.2490     0.5314 H       
  44 H44            1.0498    -4.1531    -3.9943 H       
  45 H45            1.5212    -8.2350    -5.1476 H       
  46 H46            1.9409    -7.1225    -1.0488 H       
  47 H47            3.8750    -5.1080    -2.5035 H       
  48 H48            4.7593    -3.7526    -1.7623 H       
  49 H49            4.0390    -5.0140    -0.7336 H       
  50 H50           -1.1685     4.5431     1.0890 H       
  51 H51           -2.3309     6.5707     0.1032 H       
  52 H52           -1.0404     6.6717    -1.2105 H       
  53 H53           -1.6635     4.3436    -2.0016 H       
  54 H54           -2.9540     4.2426    -0.6879 H       
  55 *55            9.7593    11.6717     8.2854 Du      
@<TRIPOS>BOND
   1    1    2 1
   2    1    6 1
   3    1    9 2
   4    2   29 1
   5    2    3 2
   6    3    4 1
   7    3   11 1
   8    4    5 2
   9    4   33 1
  10    5    6 1
  11    5   34 1
  12    6    7 1
  13    7    8 2
  14    7   10 1
  15    8    9 1
  16   10   26 1
  17   10   35 1
  18   10   36 1
  19   11   12 1
  20   11   16 1
  21   12   13 1
  22   12   37 1
  23   12   38 1
  24   13   14 1
  25   13   39 1
  26   13   40 1
  27   14   15 1
  28   14   17 1
  29   15   16 1
  30   15   23 1
  31   15   41 1
  32   16   42 1
  33   16   43 1
  34   17   18 ar
  35   17   22 ar
  36   18   19 ar
  37   18   44 1
  38   19   20 ar
  39   19   24 1
  40   20   21 ar
  41   20   45 1
  42   21   22 ar
  43   21   25 1
  44   22   46 1
  45   23   47 1
  46   23   48 1
  47   23   49 1
  48   26   27 1
  49   26   28 1
  50   26   50 1
  51   27   28 1
  52   27   51 1
  53   27   52 1
  54   28   53 1
  55   28   54 1
  56   29   30 1
  57   29   31 1
  58   29   32 1

#	End of record

