#	Name: ASD01910635
#	Creating user name:	WinNT
#	Creation time:	15. 06. 2019 19:56

#	Modifying user name:	WinNT
#	Modification time:	15. 06. 2019 19:56

#	Program:	/corina/corina34_cracker 3.40 0067  02.08.2006

@<TRIPOS>MOLECULE
ASD01910635
  43   46    0    0    0
SMALL
NO_CHARGES


@<TRIPOS>ATOM
   1 C1            -0.0167     1.3801     0.0096 C.ar    
   2 C2             0.0021    -0.0041     0.0020 C.ar    
   3 C3             1.2199    -0.6681    -0.0132 C.ar    
   4 C4             2.3826     0.0839    -0.0203 C.ar    
   5 C5             2.2894     1.4751    -0.0120 C.ar    
   6 N6             1.1032     2.0715     0.0026 N.ar    
   7 C7             3.5222     2.2934    -0.0194 C.2     
   8 N8             3.5935     3.6118    -0.0130 N.2     
   9 C9             4.9038     3.9015    -0.0240 C.2     
  10 N10            5.5556     2.7763    -0.0363 N.2     
  11 O11            4.7849     1.8398    -0.0281 O.3     
  12 C12            5.5101     5.2811    -0.0229 C.3     
  13 C13            6.3879     5.4523     1.2191 C.3     
  14 C14            6.9779     6.8643     1.2381 C.3     
  15 C15            7.8526     7.0646    -0.0034 C.3     
  16 N16            7.0540     6.7605    -1.1986 N.am    
  17 C17            6.3682     5.4636    -1.2788 C.3     
  18 C18            6.9525     7.6541    -2.2024 C.2     
  19 C19            7.6471     8.9524    -2.1073 C.ar    
  20 O20            6.2885     7.3905    -3.1862 O.2     
  21 C21            7.0036    10.0542    -1.5336 C.ar    
  22 C22            7.6617    11.2667    -1.4486 C.ar    
  23 C23            8.9526    11.3925    -1.9288 C.ar    
  24 C24            9.5960    10.3086    -2.4978 C.ar    
  25 C25            8.9550     9.0871    -2.5852 C.ar    
  26 F26            9.5855     8.0294    -3.1411 F       
  27 F27            5.7424     9.9335    -1.0644 F       
  28 H28           -0.9634     1.8998     0.0169 H       
  29 H29           -0.9228    -0.5618     0.0082 H       
  30 H30            1.2603    -1.7473    -0.0191 H       
  31 H31            3.3480    -0.4002    -0.0318 H       
  32 H32            4.7159     6.0276    -0.0127 H       
  33 H33            5.7848     5.2986     2.1139 H       
  34 H34            7.1961     4.7213     1.1961 H       
  35 H35            6.1702     7.5962     1.2361 H       
  36 H36            7.5841     6.9932     2.1349 H       
  37 H37            8.1951     8.0986    -0.0462 H       
  38 H38            8.7113     6.3948     0.0425 H       
  39 H39            7.1058     4.6631    -1.3368 H       
  40 H40            5.7312     5.4411    -2.1630 H       
  41 H41            7.1663    12.1184    -1.0063 H       
  42 H42            9.4610    12.3428    -1.8592 H       
  43 H43           10.6038    10.4157    -2.8709 H       
@<TRIPOS>BOND
   1    1    2 ar
   2    1    6 ar
   3    1   28 1
   4    2    3 ar
   5    2   29 1
   6    3    4 ar
   7    3   30 1
   8    4    5 ar
   9    4   31 1
  10    5    6 ar
  11    5    7 1
  12    7    8 2
  13    7   11 1
  14    8    9 1
  15    9   10 2
  16    9   12 1
  17   10   11 1
  18   12   13 1
  19   12   17 1
  20   12   32 1
  21   13   14 1
  22   13   33 1
  23   13   34 1
  24   14   15 1
  25   14   35 1
  26   14   36 1
  27   15   16 1
  28   15   37 1
  29   15   38 1
  30   16   17 1
  31   16   18 am
  32   17   39 1
  33   17   40 1
  34   18   19 1
  35   18   20 2
  36   19   21 ar
  37   19   25 ar
  38   21   22 ar
  39   21   27 1
  40   22   23 ar
  41   22   41 1
  42   23   24 ar
  43   23   42 1
  44   24   25 ar
  45   24   43 1
  46   25   26 1

#	End of record

