#	Name: ASD01148527
#	Creating user name:	WinNT
#	Creation time:	15. 06. 2019 19:02

#	Modifying user name:	WinNT
#	Modification time:	15. 06. 2019 19:02

#	Program:	/corina/corina34_cracker 3.40 0067  02.08.2006

@<TRIPOS>MOLECULE
ASD01148527
  54   58    0    0    0
SMALL
NO_CHARGES


@<TRIPOS>ATOM
   1 C1            -0.0180     1.4349     0.0450 C.ar    
   2 C2            -0.0166     0.0528     0.0405 C.ar    
   3 C3             1.1812    -0.6373     0.0175 C.ar    
   4 C4             2.3774     0.0551    -0.0013 C.ar    
   5 C5             2.3760     1.4376     0.0023 C.ar    
   6 C6             1.1785     2.1274     0.0267 C.ar    
   7 C7             3.6801     2.1925    -0.0173 C.3     
   8 O8             4.6904     1.4586    -0.7386 O.3     
   9 C9             3.5611     3.4816    -0.8647 C.3     
  10 C10            4.0481     3.0268    -2.2273 C.2     
  11 N11            4.6607     1.8982    -2.0821 N.2     
  12 C12            3.8555     3.7471    -3.4975 C.ar    
  13 C13            4.3789     3.1929    -4.7437 C.ar    
  14 C14            3.1704     4.9542    -3.5191 C.ar    
  15 C15            2.9750     5.6520    -4.6976 C.ar    
  16 C16            3.4555     5.1751    -5.9096 C.ar    
  17 C17            4.1792     3.9066    -5.9491 C.ar    
  18 C18            3.2320     5.9405    -7.1490 C.2     
  19 O19            3.7443     5.5756    -8.1896 O.2     
  20 N20            2.4599     7.0450    -7.1289 N.am    
  21 C21            4.6811     3.3870    -7.1490 C.ar    
  22 C22            5.0707     1.9753    -4.7701 C.ar    
  23 C23            4.1460     2.5120     1.4046 C.3     
  24 F24            4.3107     1.3211     2.1201 F       
  25 F25            5.3645     3.1975     1.3532 F       
  26 F26            3.1887     3.3096     2.0408 F       
  27 C27            2.2493     7.7659    -8.2963 C.ar    
  28 N28            1.4878     8.8487    -8.2587 N.ar    
  29 N29            2.8192     7.3574    -9.4198 N.ar    
  30 C30            2.6392     8.0211   -10.5496 C.ar    
  31 C31            1.8434     9.1561   -10.5475 C.ar    
  32 C32            1.2669     9.5584    -9.3528 C.ar    
  33 C33            5.5420     1.4943    -5.9554 C.ar    
  34 C34            5.3503     2.1992    -7.1407 C.ar    
  35 C35            1.1828    -2.1442     0.0136 C.3     
  36 F36           -0.1356    -2.6120     0.0356 F       
  37 F37            1.8224    -2.6069    -1.1414 F       
  38 F38            1.8628    -2.6129     1.1428 F       
  39 H39           -0.9537     1.9739     0.0584 H       
  40 H40           -0.9512    -0.4882     0.0552 H       
  41 H41            3.3131    -0.4840    -0.0185 H       
  42 H42            1.1775     3.2074     0.0299 H       
  43 H43            2.5251     3.8166    -0.9160 H       
  44 H44            4.2036     4.2671    -0.4665 H       
  45 H45            2.7812     5.3572    -2.5958 H       
  46 H46            2.4365     6.5879    -4.6743 H       
  47 H47            2.0512     7.3361    -6.2988 H       
  48 H48            4.5386     3.9239    -8.0752 H       
  49 H49            5.2301     1.4211    -3.8569 H       
  50 H50            3.1069     7.6832   -11.4626 H       
  51 H51            1.6796     9.7170   -11.4557 H       
  52 H52            0.6415    10.4382    -9.3167 H       
  53 H53            6.0754     0.5553    -5.9747 H       
  54 H54            5.7367     1.7993    -8.0665 H       
@<TRIPOS>BOND
   1    1    2 ar
   2    1    6 ar
   3    1   39 1
   4    2    3 ar
   5    2   40 1
   6    3    4 ar
   7    3   35 1
   8    4    5 ar
   9    4   41 1
  10    5    6 ar
  11    5    7 1
  12    6   42 1
  13    7    8 1
  14    7    9 1
  15    7   23 1
  16    8   11 1
  17    9   10 1
  18    9   43 1
  19    9   44 1
  20   10   11 2
  21   10   12 1
  22   12   13 ar
  23   12   14 ar
  24   13   22 ar
  25   13   17 ar
  26   14   15 ar
  27   14   45 1
  28   15   16 ar
  29   15   46 1
  30   16   17 ar
  31   16   18 1
  32   17   21 ar
  33   18   19 2
  34   18   20 am
  35   20   27 1
  36   20   47 1
  37   21   34 ar
  38   21   48 1
  39   22   33 ar
  40   22   49 1
  41   23   24 1
  42   23   25 1
  43   23   26 1
  44   27   28 ar
  45   27   29 ar
  46   28   32 ar
  47   29   30 ar
  48   30   31 ar
  49   30   50 1
  50   31   32 ar
  51   31   51 1
  52   32   52 1
  53   33   34 ar
  54   33   53 1
  55   34   54 1
  56   35   36 1
  57   35   37 1
  58   35   38 1

#	End of record

