#	Name: ASD01410903
#	Creating user name:	WinNT
#	Creation time:	15. 06. 2019 19:18

#	Modifying user name:	WinNT
#	Modification time:	15. 06. 2019 19:18

#	Program:	/corina/corina34_cracker 3.40 0067  02.08.2006

@<TRIPOS>MOLECULE
ASD01410903
  54   56    0    0    0
SMALL
NO_CHARGES


@<TRIPOS>ATOM
   1 C1            -0.3395     2.2990    -0.4597 C.ar    
   2 C2            -0.5638    -0.0066    -1.0996 C.ar    
   3 C3            -1.9103     0.0259    -0.7631 C.ar    
   4 C4            -2.4742     1.2080    -0.2588 C.ar    
   5 C5            -1.6779     2.3467    -0.1148 C.ar    
   6 O6             0.4374     3.4054    -0.3145 O.3     
   7 C7             0.8869     4.0198    -1.4374 C.ar    
   8 N8            -2.6966    -1.1138    -0.9160 N.am    
   9 C9            -2.8986    -1.9385     0.1307 C.2     
  10 C10           -2.3885    -1.5717     1.4715 C.ar    
  11 O11           -3.4994    -2.9832    -0.0260 O.2     
  12 N12           -1.7983    -0.3961     1.6522 N.ar    
  13 C13           -2.0547    -2.1041     3.7829 C.ar    
  14 C14           -1.4396    -0.8692     3.9265 C.ar    
  15 C15           -1.3316    -0.0316     2.8260 C.ar    
  16 Br16          -0.7630    -0.3291     5.6077 Br      
  17 N17            0.4797     3.5973    -2.6232 N.ar    
  18 C18           -3.3039    -1.4159    -2.2145 C.3     
  19 C19           -4.1437    -0.2226    -2.6747 C.3     
  20 C20            1.7657     5.0901    -1.3311 C.ar    
  21 C21            2.2168     5.7083    -2.4845 C.ar    
  22 C22            1.7704     5.2314    -3.7090 C.ar    
  23 C23            0.8920     4.1663    -3.7398 C.ar    
  24 C24           -2.5370    -2.4608     2.5338 C.ar    
  25 C25            0.2155     1.1223    -0.9487 C.ar    
  26 C26           -0.4197    -3.2074    -3.7555 C.3     
  27 O27           -1.4768    -2.8606    -2.8586 O.3     
  28 C28           -2.2030    -1.6908    -3.2408 C.3     
  29 C29           -3.9027     1.2526     0.1013 C.2     
  30 O30           -4.5686     0.2365     0.0724 O.2     
  31 O31           -4.4704     2.4201     0.4628 O.3     
  32 C32            2.2217     5.5722     0.0220 C.3     
  33 F33            3.0963     6.6523    -0.1382 F       
  34 F34            1.1118     5.9779     0.7708 F       
  35 F35            2.8803     4.5339     0.6894 F       
  36 H36           -0.1271    -0.9150    -1.4875 H       
  37 H37           -2.1065     3.2623     0.2653 H       
  38 H38           -2.1509    -2.7744     4.6243 H       
  39 H39           -0.8576     0.9326     2.9348 H       
  40 H40           -3.9417    -2.2949    -2.1216 H       
  41 H41           -3.5211     0.6717    -2.7000 H       
  42 H42           -4.5384    -0.4190    -3.6716 H       
  43 H43           -4.9700    -0.0706    -1.9803 H       
  44 H44            2.9002     6.5429    -2.4327 H       
  45 H45            2.1031     5.6912    -4.6279 H       
  46 H46            0.5419     3.7911    -4.6901 H       
  47 H47           -3.0215    -3.4146     2.3859 H       
  48 H48            1.2624     1.0914    -1.2124 H       
  49 H49            0.2963    -2.3871    -3.8076 H       
  50 H50            0.0823    -4.1055    -3.3955 H       
  51 H51           -0.8312    -3.3940    -4.7474 H       
  52 H52           -2.6515    -1.8459    -4.2221 H       
  53 H53           -1.5240    -0.8390    -3.2823 H       
  54 H54           -5.4100     2.3995     0.6902 H       
@<TRIPOS>BOND
   1    1   25 ar
   2    1    6 1
   3    1    5 ar
   4    2    3 ar
   5    2   25 ar
   6    2   36 1
   7    3    4 ar
   8    3    8 1
   9    4    5 ar
  10    4   29 1
  11    5   37 1
  12    6    7 1
  13    7   20 ar
  14    7   17 ar
  15    8    9 am
  16    8   18 1
  17    9   11 2
  18    9   10 1
  19   10   12 ar
  20   10   24 ar
  21   12   15 ar
  22   13   14 ar
  23   13   24 ar
  24   13   38 1
  25   14   15 ar
  26   14   16 1
  27   15   39 1
  28   17   23 ar
  29   18   19 1
  30   18   28 1
  31   18   40 1
  32   19   41 1
  33   19   42 1
  34   19   43 1
  35   20   21 ar
  36   20   32 1
  37   21   22 ar
  38   21   44 1
  39   22   23 ar
  40   22   45 1
  41   23   46 1
  42   24   47 1
  43   25   48 1
  44   26   27 1
  45   26   49 1
  46   26   50 1
  47   26   51 1
  48   27   28 1
  49   28   52 1
  50   28   53 1
  51   29   30 2
  52   29   31 1
  53   31   54 1
  54   32   33 1
  55   32   34 1
  56   32   35 1

#	End of record

