#	Name: ASD01903164
#	Creating user name:	WinNT
#	Creation time:	15. 06. 2019 19:54

#	Modifying user name:	WinNT
#	Modification time:	15. 06. 2019 19:54

#	Program:	/corina/corina34_cracker 3.40 0067  02.08.2006

@<TRIPOS>MOLECULE
ASD01903164
  45   47    0    0    0
SMALL
NO_CHARGES


@<TRIPOS>ATOM
   1 C1             1.7378    -1.7240     2.0349 C.ar    
   2 C2             0.7299    -1.1924     1.2461 C.ar    
   3 C3             1.0037    -0.0993     0.4392 C.ar    
   4 N4             2.2039     0.4373     0.4133 N.ar    
   5 C5             3.1968    -0.0413     1.1532 C.ar    
   6 C6             2.9932    -1.1381     1.9874 C.ar    
   7 C7             4.5325     0.5962     1.0911 C.2     
   8 N8             4.7357     1.6577     0.2858 N.am    
   9 O9             5.4450     0.1621     1.7662 O.2     
  10 C10            5.9679     2.3186     0.2978 C.ar    
  11 C11            7.1423     1.5984     0.4749 C.ar    
  12 C12            8.3576     2.2542     0.4863 C.ar    
  13 C13            8.4061     3.6264     0.3217 C.ar    
  14 C14            7.2387     4.3465     0.1456 C.ar    
  15 C15            6.0206     3.6960     0.1270 C.ar    
  16 S16            9.9588     4.4592     0.3369 S.o2    
  17 O17            9.6883     5.8058     0.7013 O.2     
  18 O18           10.8550     3.6242     1.0571 O.2     
  19 N19           10.5091     4.4989    -1.2245 N.am    
  20 C20            9.7658     5.1379    -2.2058 C.ar    
  21 C21            9.7239     4.6186    -3.5123 C.ar    
  22 C22            8.9684     5.2751    -4.4920 C.ar    
  23 C23            8.2748     6.4196    -4.1709 C.ar    
  24 C24            8.3188     6.9283    -2.8813 C.ar    
  25 C25            9.0535     6.2919    -1.9025 C.ar    
  26 C26           10.4663     3.3988    -3.8464 C.2     
  27 O27           11.1197     2.8338    -2.9945 O.2     
  28 C28           10.4176     2.8471    -5.2479 C.3     
  29 H29            1.5484    -2.5728     2.6753 H       
  30 H30           -0.2592    -1.6259     1.2598 H       
  31 H31            0.2206     0.3173    -0.1770 H       
  32 H32            3.8020    -1.5266     2.5885 H       
  33 H33            4.0272     1.9631    -0.3021 H       
  34 H34            7.1050     0.5268     0.6039 H       
  35 H35            9.2711     1.6949     0.6243 H       
  36 H36            7.2800     5.4181     0.0176 H       
  37 H37            5.1092     4.2589    -0.0106 H       
  38 H38           11.3513     4.0752    -1.4529 H       
  39 H39            8.9305     4.8841    -5.4980 H       
  40 H40            7.6930     6.9248    -4.9276 H       
  41 H41            7.7705     7.8271    -2.6407 H       
  42 H42            9.0814     6.6954    -0.9011 H       
  43 H43           10.8052     3.5903    -5.9446 H       
  44 H44           11.0258     1.9442    -5.3043 H       
  45 H45            9.3867     2.6076    -5.5085 H       
@<TRIPOS>BOND
   1    1    2 ar
   2    1    6 ar
   3    1   29 1
   4    2    3 ar
   5    2   30 1
   6    3    4 ar
   7    3   31 1
   8    4    5 ar
   9    5    6 ar
  10    5    7 1
  11    6   32 1
  12    7    8 am
  13    7    9 2
  14    8   10 1
  15    8   33 1
  16   10   11 ar
  17   10   15 ar
  18   11   12 ar
  19   11   34 1
  20   12   13 ar
  21   12   35 1
  22   13   14 ar
  23   13   16 1
  24   14   15 ar
  25   14   36 1
  26   15   37 1
  27   16   17 2
  28   16   18 2
  29   16   19 am
  30   19   20 1
  31   19   38 1
  32   20   21 ar
  33   20   25 ar
  34   21   22 ar
  35   21   26 1
  36   22   23 ar
  37   22   39 1
  38   23   24 ar
  39   23   40 1
  40   24   25 ar
  41   24   41 1
  42   25   42 1
  43   26   27 2
  44   26   28 1
  45   28   43 1
  46   28   44 1
  47   28   45 1

#	End of record

