#	Name: ASD05590007
#	Creating user name:	WinNT
#	Creation time:	15. 06. 2019 21:01

#	Modifying user name:	WinNT
#	Modification time:	15. 06. 2019 21:01

#	Program:	/corina/corina34_cracker 3.40 0067  02.08.2006

@<TRIPOS>MOLECULE
ASD05590007
  30   31    0    0    0
SMALL
NO_CHARGES


@<TRIPOS>ATOM
   1 C1            -0.0185     1.5107     0.0103 C.3     
   2 C2             0.0021    -0.0041     0.0020 C.2     
   3 C3            -1.3012    -0.7260    -0.2667 C.3     
   4 O4            -1.9089    -0.1435    -1.4247 O.3     
   5 C5            -2.1102     1.2675    -1.3292 C.3     
   6 C6            -0.7582     1.9808    -1.2491 C.3     
   7 C7             1.4142     2.0476    -0.0004 C.3     
   8 O8            -0.7008     1.9783     1.1756 O.3     
   9 O9             1.0241    -0.6153     0.2026 O.2     
  10 O10           -1.0441    -2.1116    -0.5034 O.3     
  11 C11           -2.8711     1.7572    -2.5630 C.3     
  12 C12           -4.2531     1.1563    -2.5721 C.2     
  13 N13           -5.3965     1.7322    -2.0877 N.pl3   
  14 C14           -6.4036     0.8569    -2.2955 C.2     
  15 N15           -5.9202    -0.2068    -2.8767 N.2     
  16 C16           -4.6016    -0.0480    -3.0638 C.2     
  17 H17           -1.9652    -0.6165     0.5908 H       
  18 H18           -2.6912     1.4908    -0.4344 H       
  19 H19           -0.9167     3.0580    -1.1982 H       
  20 H20           -0.1657     1.7394    -2.1315 H       
  21 H21            1.9262     1.6987    -0.8972 H       
  22 H22            1.3939     3.1374     0.0056 H       
  23 H23            1.9432     1.6892     0.8826 H       
  24 H24           -0.2967     1.6965     2.0077 H       
  25 H25           -1.8379    -2.6339    -0.6828 H       
  26 H26           -2.9477     2.8441    -2.5349 H       
  27 H27           -2.3370     1.4537    -3.4634 H       
  28 H28           -5.4696     2.6059    -1.6727 H       
  29 H29           -7.4377     1.0115    -2.0251 H       
  30 H30           -3.9349    -0.7635    -3.5220 H       
@<TRIPOS>BOND
   1    1    2 1
   2    1    7 1
   3    1    8 1
   4    1    6 1
   5    2    3 1
   6    2    9 2
   7    3    4 1
   8    3   10 1
   9    3   17 1
  10    4    5 1
  11    5    6 1
  12    5   11 1
  13    5   18 1
  14    6   19 1
  15    6   20 1
  16    7   21 1
  17    7   22 1
  18    7   23 1
  19    8   24 1
  20   10   25 1
  21   11   12 1
  22   11   26 1
  23   11   27 1
  24   12   13 1
  25   12   16 2
  26   13   14 1
  27   13   28 1
  28   14   15 2
  29   14   29 1
  30   15   16 1
  31   16   30 1

#	End of record

