#	Name: ASD01917018
#	Creating user name:	WinNT
#	Creation time:	15. 06. 2019 20:08

#	Modifying user name:	WinNT
#	Modification time:	15. 06. 2019 20:08

#	Program:	/corina/corina34_cracker 3.40 0067  02.08.2006

@<TRIPOS>MOLECULE
ASD01917018
  32   34    0    0    0
SMALL
NO_CHARGES


@<TRIPOS>ATOM
   1 C1            -0.0168     1.3910     0.0097 C.ar    
   2 C2             0.0021    -0.0041     0.0020 C.ar    
   3 C3             1.2528     2.1506     0.0016 C.2     
   4 N4             2.4633     1.6340    -0.0131 N.2     
   5 C5             3.3724     2.6152    -0.0172 C.2     
   6 N6             2.7503     3.7742    -0.0050 N.2     
   7 N7             1.3733     3.4988     0.0023 N.pl3   
   8 C8             4.8445     2.4268    -0.0325 C.ar    
   9 C9             5.3845     1.1420    -0.0440 C.ar    
  10 C10            5.6898     3.5330    -0.0410 C.ar    
  11 C11            7.0631     3.3507    -0.0553 C.ar    
  12 C12            7.5930     2.0679    -0.0609 C.ar    
  13 C13            6.7539     0.9692    -0.0582 C.ar    
  14 C14           -1.1842    -0.7075     0.0096 C.ar    
  15 C15           -2.3936    -0.0309     0.0248 C.ar    
  16 C16           -2.4178     1.3547     0.0321 C.ar    
  17 C17           -1.2371     2.0674     0.0192 C.ar    
  18 F18           -3.5530    -0.7245     0.0322 F       
  19 O19            7.8915     4.4280    -0.0641 O.3     
  20 C20            9.2963     4.1662    -0.0786 C.3     
  21 H21            0.9441    -0.5322    -0.0102 H       
  22 H22            0.6513     4.1465     0.0116 H       
  23 H23            4.7316     0.2817    -0.0416 H       
  24 H24            5.2761     4.5306    -0.0370 H       
  25 H25            8.6638     1.9277    -0.0723 H       
  26 H26            7.1710    -0.0270    -0.0626 H       
  27 H27           -1.1706    -1.7874     0.0033 H       
  28 H28           -3.3629     1.8773     0.0436 H       
  29 H29           -1.2570     3.1472     0.0252 H       
  30 H30            9.5685     3.5947     0.8087 H       
  31 H31            9.5501     3.5943    -0.9711 H       
  32 H32            9.8417     5.1099    -0.0845 H       
@<TRIPOS>BOND
   1    1    2 ar
   2    1    3 1
   3    1   17 ar
   4    2   14 ar
   5    2   21 1
   6    3    4 2
   7    3    7 1
   8    4    5 1
   9    5    6 2
  10    5    8 1
  11    6    7 1
  12    7   22 1
  13    8    9 ar
  14    8   10 ar
  15    9   13 ar
  16    9   23 1
  17   10   11 ar
  18   10   24 1
  19   11   12 ar
  20   11   19 1
  21   12   13 ar
  22   12   25 1
  23   13   26 1
  24   14   15 ar
  25   14   27 1
  26   15   16 ar
  27   15   18 1
  28   16   17 ar
  29   16   28 1
  30   17   29 1
  31   19   20 1
  32   20   30 1
  33   20   31 1
  34   20   32 1

#	End of record

