#	Name: ASD00844890
#	Creating user name:	WinNT
#	Creation time:	15. 06. 2019 18:51

#	Modifying user name:	WinNT
#	Modification time:	15. 06. 2019 18:51

#	Program:	/corina/corina34_cracker 3.40 0067  02.08.2006

@<TRIPOS>MOLECULE
ASD00844890
  98  103    0    0    0
SMALL
NO_CHARGES


@<TRIPOS>ATOM
   1 F1             5.6844    -1.9876    -2.1636 F       
   2 C2             0.6469     1.3386    -0.6720 C.ar    
   3 C3             0.9323    -0.0025    -0.8823 C.ar    
   4 C4             0.8447    -0.9015     0.1710 C.ar    
   5 C5             0.4738    -0.4592     1.4258 C.ar    
   6 C6             0.1893     0.8781     1.6328 C.ar    
   7 C7             0.2763     1.7759     0.5851 C.ar    
   8 C8             1.1536    -2.3592    -0.0541 C.3     
   9 C9             0.8650    -3.1615     1.1966 C.2     
  10 C10            0.3465    -2.9003    -1.2359 C.3     
  11 C11           -1.1183    -2.6265    -1.0113 C.2     
  12 N12           -2.0299    -3.0629    -1.9030 N.am    
  13 O13           -1.4768    -2.0135    -0.0282 O.2     
  14 C14           -3.4471    -2.7016    -1.7624 C.3     
  15 C15           -4.2863    -3.9831    -1.7768 C.3     
  16 C16           -3.9644    -4.7848    -3.0400 C.3     
  17 C17           -2.4849    -5.1764    -3.0345 C.3     
  18 C18           -1.6244    -3.9038    -3.0375 C.3     
  19 N19           -4.7917    -5.9983    -3.0737 N.3     
  20 C20           -4.5963    -6.7342    -4.3306 C.3     
  21 C21           -5.4122    -8.0285    -4.2930 C.3     
  22 N22           -6.8313    -7.7042    -4.0910 N.3     
  23 C23           -7.0267    -6.9683    -2.8341 C.3     
  24 C24           -6.2107    -5.6740    -2.8717 C.3     
  25 C25           -7.6586    -8.9177    -4.1247 C.3     
  26 O26           -0.2113    -3.2816     1.7426 O.2     
  27 N27            2.0242    -3.7161     1.5885 N.am    
  28 C28            2.6346    -2.5571    -0.2856 C.ar    
  29 C29            3.0833    -3.3819     0.7409 C.ar    
  30 C30            3.4978    -2.0916    -1.2527 C.ar    
  31 C31            4.8361    -2.4423    -1.2155 C.ar    
  32 C32            5.3052    -3.2708    -0.1909 C.ar    
  33 C33            4.4258    -3.7390     0.7849 C.ar    
  34 C34            1.9012    -6.3437     2.3977 C.ar    
  35 C35            0.6540    -6.7212     1.9223 C.ar    
  36 C36            2.9264    -7.2681     2.4542 C.ar    
  37 C37            2.7102    -8.5682     2.0368 C.ar    
  38 C38            1.4678    -8.9470     1.5624 C.ar    
  39 C39            0.4394    -8.0268     1.5044 C.ar    
  40 H40            1.3014    -9.9633     1.2370 H       
  41 O41           -0.3562    -5.8138     1.8662 O.3     
  42 C42           -1.6135    -6.2729     1.3656 C.3     
  43 C43           -2.6190    -5.1198     1.3776 C.3     
  44 C44           -9.1068    -8.5570    -3.7881 C.3     
  45 C45           -7.5989    -9.5370    -5.5225 C.3     
  46 C46            6.6883    -3.6389    -0.1444 C.1     
  47 N47            7.7855    -3.9309    -0.1075 N.1     
  48 S48            2.1797    -4.6849     2.9225 S.o2    
  49 O49            3.5436    -4.6118     3.3147 O.2     
  50 O50            1.1032    -4.3517     3.7880 O.2     
  51 O51            1.2966    -0.4352    -2.1180 O.3     
  52 C52            1.2670     0.5246    -3.1763 C.3     
  53 C53            1.7839    -0.1200    -4.4640 C.3     
  54 F54            3.0638    -0.6402    -4.2438 F       
  55 F55            0.9209    -1.1520    -4.8479 F       
  56 H56            0.7187     2.0410    -1.4892 H       
  57 H57            0.4055    -1.1586     2.2460 H       
  58 H58           -0.1012     1.2218     2.6146 H       
  59 H59            0.0536     2.8199     0.7493 H       
  60 H60            0.6715    -2.4091    -2.1531 H       
  61 H61            0.5060    -3.9751    -1.3232 H       
  62 H62           -3.5985    -2.1763    -0.8194 H       
  63 H63           -3.7448    -2.0605    -2.5921 H       
  64 H64           -4.0518    -4.5816    -0.8965 H       
  65 H65           -5.3452    -3.7247    -1.7700 H       
  66 H66           -4.1759    -4.1769    -3.9197 H       
  67 H67           -2.2673    -5.7636    -2.1424 H       
  68 H68           -2.2617    -5.7672    -3.9229 H       
  69 H69           -1.7747    -3.3632    -3.9720 H       
  70 H70           -0.5733    -4.1732    -2.9338 H       
  71 H71           -4.9280    -6.1194    -5.1673 H       
  72 H72           -3.5398    -6.9737    -4.4513 H       
  73 H73           -5.2917    -8.5619    -5.2359 H       
  74 H74           -5.0622    -8.6554    -3.4729 H       
  75 H75           -8.0831    -6.7288    -2.7134 H       
  76 H76           -6.6949    -7.5831    -1.9974 H       
  77 H77           -6.3312    -5.1406    -1.9288 H       
  78 H78           -6.5608    -5.0471    -3.6918 H       
  79 H79           -7.2831    -9.6337    -3.3937 H       
  80 H80            3.1297    -1.4522    -2.0415 H       
  81 H81            4.7884    -4.3787     1.5760 H       
  82 H82            3.8977    -6.9747     2.8243 H       
  83 H83            3.5132    -9.2892     2.0811 H       
  84 H84           -0.5310    -8.3233     1.1345 H       
  85 H85           -1.4880    -6.6349     0.3451 H       
  86 H86           -1.9817    -7.0826     1.9956 H       
  87 H87           -2.7445    -4.7578     2.3980 H       
  88 H88           -2.2508    -4.3101     0.7475 H       
  89 H89           -3.5780    -5.4699     0.9957 H       
  90 H90           -9.7207    -9.4574    -3.8130 H       
  91 H91           -9.1494    -8.1158    -2.7923 H       
  92 H92           -9.4823    -7.8409    -4.5191 H       
  93 H93           -6.5671    -9.7939    -5.7623 H       
  94 H94           -8.2127   -10.4374    -5.5474 H       
  95 H95           -7.9743    -8.8209    -6.2535 H       
  96 H96            0.2434     0.8676    -3.3272 H       
  97 H97            1.8997     1.3729    -2.9152 H       
  98 H98            1.8274     0.6300    -5.2537 H       
@<TRIPOS>BOND
   1    1   31 1
   2    2    3 ar
   3    2    7 ar
   4    2   56 1
   5    3    4 ar
   6    3   51 1
   7    4    5 ar
   8    4    8 1
   9    5    6 ar
  10    5   57 1
  11    6    7 ar
  12    6   58 1
  13    7   59 1
  14    8    9 1
  15    8   10 1
  16    8   28 1
  17    9   26 2
  18    9   27 am
  19   10   11 1
  20   10   60 1
  21   10   61 1
  22   11   12 am
  23   11   13 2
  24   12   14 1
  25   12   18 1
  26   14   15 1
  27   14   62 1
  28   14   63 1
  29   15   16 1
  30   15   64 1
  31   15   65 1
  32   16   17 1
  33   16   19 1
  34   16   66 1
  35   17   18 1
  36   17   67 1
  37   17   68 1
  38   18   69 1
  39   18   70 1
  40   19   20 1
  41   19   24 1
  42   20   21 1
  43   20   71 1
  44   20   72 1
  45   21   22 1
  46   21   73 1
  47   21   74 1
  48   22   23 1
  49   22   25 1
  50   23   24 1
  51   23   75 1
  52   23   76 1
  53   24   77 1
  54   24   78 1
  55   25   44 1
  56   25   45 1
  57   25   79 1
  58   27   48 am
  59   27   29 1
  60   28   29 ar
  61   28   30 ar
  62   29   33 ar
  63   30   31 ar
  64   30   80 1
  65   31   32 ar
  66   32   33 ar
  67   32   46 1
  68   33   81 1
  69   34   35 ar
  70   34   36 ar
  71   34   48 1
  72   35   41 1
  73   35   39 ar
  74   36   37 ar
  75   36   82 1
  76   37   38 ar
  77   37   83 1
  78   38   39 ar
  79   38   40 1
  80   39   84 1
  81   41   42 1
  82   42   43 1
  83   42   85 1
  84   42   86 1
  85   43   87 1
  86   43   88 1
  87   43   89 1
  88   44   90 1
  89   44   91 1
  90   44   92 1
  91   45   93 1
  92   45   94 1
  93   45   95 1
  94   46   47 3
  95   48   49 2
  96   48   50 2
  97   51   52 1
  98   52   53 1
  99   52   96 1
 100   52   97 1
 101   53   54 1
 102   53   55 1
 103   53   98 1

#	End of record

