#	Name: ASD00310348
#	Creating user name:	WinNT
#	Creation time:	15. 06. 2019 18:34

#	Modifying user name:	WinNT
#	Modification time:	15. 06. 2019 18:34

#	Program:	/corina/corina34_cracker 3.40 0067  02.08.2006

@<TRIPOS>MOLECULE
ASD00310348
  33   36    0    0    0
SMALL
NO_CHARGES


@<TRIPOS>ATOM
   1 N1            -0.0153     1.2794     0.0091 N.pl3   
   2 N2             0.0021    -0.0041     0.0020 N.2     
   3 C3             1.2292    -0.4800    -0.0122 C.2     
   4 C4             2.1244     0.6858    -0.0145 C.ar    
   5 C5             3.5014     0.8764    -0.0270 C.ar    
   6 C6             4.0088     2.1687    -0.0253 C.ar    
   7 C7             3.1375     3.2656    -0.0107 C.ar    
   8 C8             1.7847     3.0822     0.0016 C.ar    
   9 C9             1.2550     1.7947    -0.0003 C.ar    
  10 C10            1.6261    -1.8977    -0.0232 C.2     
  11 O11            2.8035    -2.1990    -0.0357 O.2     
  12 O12            0.6838    -2.8614    -0.0195 O.3     
  13 O13            9.5373     3.1256    -0.2557 O.3     
  14 C14            9.6140     4.3512    -1.0028 C.3     
  15 C15            8.3040     4.3341    -1.8256 C.3     
  16 C16            7.4075     3.4614    -0.9683 C.ar    
  17 C17            8.2301     2.7944    -0.0673 C.ar    
  18 C18            6.0471     3.2632    -0.9628 C.ar    
  19 C19            5.4759     2.3883    -0.0386 C.ar    
  20 C20            6.2936     1.7225     0.8726 C.ar    
  21 C21            7.6559     1.9244     0.8579 C.ar    
  22 Cl22           3.7853     4.8762    -0.0075 Cl      
  23 H23           -0.8235     1.8157     0.0159 H       
  24 H24            4.1695     0.0280    -0.0376 H       
  25 H25            1.1246     3.9369     0.0129 H       
  26 H26            0.9928    -3.7776    -0.0270 H       
  27 H27            9.6381     5.2108    -0.3330 H       
  28 H28           10.4831     4.3486    -1.6607 H       
  29 H29            7.8921     5.3386    -1.9231 H       
  30 H30            8.4650     3.8838    -2.8050 H       
  31 H31            5.4217     3.7844    -1.6725 H       
  32 H32            5.8575     1.0462     1.5929 H       
  33 H33            8.2831     1.4048     1.5671 H       
@<TRIPOS>BOND
   1    1    2 1
   2    1    9 1
   3    1   23 1
   4    2    3 2
   5    3    4 1
   6    3   10 1
   7    4    5 ar
   8    4    9 ar
   9    5    6 ar
  10    5   24 1
  11    6    7 ar
  12    6   19 1
  13    7    8 ar
  14    7   22 1
  15    8    9 ar
  16    8   25 1
  17   10   11 2
  18   10   12 1
  19   12   26 1
  20   13   14 1
  21   13   17 1
  22   14   15 1
  23   14   27 1
  24   14   28 1
  25   15   16 1
  26   15   29 1
  27   15   30 1
  28   16   17 ar
  29   16   18 ar
  30   17   21 ar
  31   18   19 ar
  32   18   31 1
  33   19   20 ar
  34   20   21 ar
  35   20   32 1
  36   21   33 1

#	End of record

