#	Name: ASD01850130
#	Creating user name:	WinNT
#	Creation time:	15. 06. 2019 19:38

#	Modifying user name:	WinNT
#	Modification time:	15. 06. 2019 19:38

#	Program:	/corina/corina34_cracker 3.40 0067  02.08.2006

@<TRIPOS>MOLECULE
ASD01850130
  52   56    0    0    0
SMALL
NO_CHARGES


@<TRIPOS>ATOM
   1 C1            -0.7038     1.9628    -0.4075 C.3     
   2 C2            -3.4986    -3.3919    -3.6891 C.ar    
   3 C3            -3.4931    -4.7364    -3.3635 C.ar    
   4 C4            -2.3852    -5.3027    -2.7669 C.ar    
   5 C5            -1.2663    -4.5176    -2.4914 C.ar    
   6 C6            -1.2883    -3.1534    -2.8076 C.ar    
   7 C7            -2.3953    -2.6028    -3.4104 C.ar    
   8 C8             0.0496    -4.8324    -1.8949 C.2     
   9 N9             0.8519    -3.7724    -1.9850 N.am    
  10 C10            0.0231    -2.5961    -2.3373 C.3     
  11 C11            2.2172    -3.2146    -1.9764 C.3     
  12 C12            2.1965    -2.2382    -3.1783 C.3     
  13 N13            0.7706    -1.9085    -3.3958 N.am    
  14 C14            0.2603    -1.1322    -4.3722 C.2     
  15 C15            1.1647    -0.4063    -5.2875 C.ar    
  16 C16            0.6442     0.4995    -6.2138 C.ar    
  17 C17            1.4933     1.1756    -7.0673 C.ar    
  18 C18            2.8623     0.9560    -7.0053 C.ar    
  19 C19            3.3841     0.0562    -6.0865 C.ar    
  20 C20            2.5432    -0.6198    -5.2249 C.ar    
  21 O21           -0.9443    -1.0292    -4.4998 O.2     
  22 C22           -0.1757    -1.7034    -1.1395 C.ar    
  23 O23            0.3537    -5.8985    -1.3966 O.2     
  24 C24           -0.1926    -2.2474     0.1313 C.ar    
  25 C25           -0.3747    -1.4312     1.2311 C.ar    
  26 C26           -0.5408    -0.0648     1.0593 C.ar    
  27 C27           -0.5235     0.4787    -0.2172 C.ar    
  28 C28           -0.3354    -0.3408    -1.3131 C.ar    
  29 F29            4.7175    -0.1540    -6.0309 F       
  30 F30            3.6894     1.6197    -7.8423 F       
  31 F31            0.9907     2.0519    -7.9643 F       
  32 O32           -0.7206     0.7401     2.1394 O.3     
  33 C33           -0.7277     0.1117     3.4228 C.3     
  34 H34            0.2259    -0.3901     3.5869 H       
  35 H35           -0.8795     0.8653     4.1955 H       
  36 H36           -1.5350    -0.6195     3.4648 H       
  37 H37            0.2695     2.4530    -0.3832 H       
  38 H38           -1.1812     2.1505    -1.3692 H       
  39 H39           -1.3298     2.3583     0.3923 H       
  40 H40           -4.3645    -2.9572    -4.1662 H       
  41 H41           -4.3594    -5.3451    -3.5767 H       
  42 H42           -2.3847    -6.3526    -2.5137 H       
  43 H43           -2.4039    -1.5537    -3.6671 H       
  44 H44            2.4097    -2.6789    -1.0469 H       
  45 H45            2.9565    -4.0007    -2.1304 H       
  46 H46            2.7601    -1.3359    -2.9409 H       
  47 H47            2.6111    -2.7207    -4.0634 H       
  48 H48           -0.4210     0.6708    -6.2630 H       
  49 H49            2.9502    -1.3195    -4.5099 H       
  50 H50           -0.0636    -3.3114     0.2645 H       
  51 H51           -0.3882    -1.8567     2.2236 H       
  52 H52           -0.3219     0.0818    -2.3069 H       
@<TRIPOS>BOND
   1    1   27 1
   2    1   37 1
   3    1   38 1
   4    1   39 1
   5    2    3 ar
   6    2    7 ar
   7    2   40 1
   8    3    4 ar
   9    3   41 1
  10    4    5 ar
  11    4   42 1
  12    5    6 ar
  13    5    8 1
  14    6    7 ar
  15    6   10 1
  16    7   43 1
  17    8    9 am
  18    8   23 2
  19    9   10 1
  20    9   11 1
  21   10   22 1
  22   10   13 1
  23   11   12 1
  24   11   44 1
  25   11   45 1
  26   12   13 1
  27   12   46 1
  28   12   47 1
  29   13   14 am
  30   14   15 1
  31   14   21 2
  32   15   16 ar
  33   15   20 ar
  34   16   17 ar
  35   16   48 1
  36   17   18 ar
  37   17   31 1
  38   18   19 ar
  39   18   30 1
  40   19   20 ar
  41   19   29 1
  42   20   49 1
  43   22   24 ar
  44   22   28 ar
  45   24   25 ar
  46   24   50 1
  47   25   26 ar
  48   25   51 1
  49   26   27 ar
  50   26   32 1
  51   27   28 ar
  52   28   52 1
  53   32   33 1
  54   33   34 1
  55   33   35 1
  56   33   36 1

#	End of record

