#	Name: ASD00170400
#	Creating user name:	WinNT
#	Creation time:	15. 06. 2019 18:32

#	Modifying user name:	WinNT
#	Modification time:	15. 06. 2019 18:32

#	Program:	/corina/corina34_cracker 3.40 0067  02.08.2006

@<TRIPOS>MOLECULE
ASD00170400
  29   31    0    0    0
SMALL
NO_CHARGES


@<TRIPOS>ATOM
   1 C1            -0.0162     1.3419     0.0094 C.2     
   2 C2             0.0021    -0.0041     0.0020 C.2     
   3 S3            -1.6546    -0.6070     0.0146 S.3     
   4 C4            -2.2573     1.0455     0.0292 C.2     
   5 N5            -1.2616     1.8661     0.0291 N.2     
   6 N6            -3.5940     1.4096     0.0439 N.pl3   
   7 C7             1.3901     1.8540    -0.0013 C.ar    
   8 C8             2.2759     0.7834    -0.0155 C.ar    
   9 C9             1.4410    -0.4718    -0.0142 C.3     
  10 C10            1.8827     3.1596     0.0006 C.ar    
  11 C11            3.2485     3.3781    -0.0116 C.ar    
  12 C12            4.1288     2.2989    -0.0263 C.ar    
  13 C13            3.6372     1.0019    -0.0273 C.ar    
  14 O14            3.7326     4.6489    -0.0098 O.3     
  15 C15            2.7738     5.7084     0.0050 C.3     
  16 O16            5.4712     2.5170    -0.0388 O.3     
  17 C17            6.3156     1.3642    -0.0534 C.3     
  18 H18           -4.2827     0.7265     0.0469 H       
  19 H19           -3.8412     2.3475     0.0513 H       
  20 H20            1.6543    -1.0652     0.8749 H       
  21 H21            1.6372    -1.0556    -0.9136 H       
  22 H22            1.2000     3.9964     0.0113 H       
  23 H23            4.3194     0.1648    -0.0386 H       
  24 H24            3.2919     6.6674     0.0049 H       
  25 H25            2.1403     5.6375    -0.8792 H       
  26 H26            2.1578     5.6284     0.9007 H       
  27 H27            6.1068     0.7722    -0.9445 H       
  28 H28            7.3593     1.6785    -0.0624 H       
  29 H29            6.1249     0.7628     0.8354 H       
@<TRIPOS>BOND
   1    1    2 2
   2    1    7 1
   3    1    5 1
   4    2    3 1
   5    2    9 1
   6    3    4 1
   7    4    5 2
   8    4    6 1
   9    6   18 1
  10    6   19 1
  11    7    8 ar
  12    7   10 ar
  13    8    9 1
  14    8   13 ar
  15    9   20 1
  16    9   21 1
  17   10   11 ar
  18   10   22 1
  19   11   12 ar
  20   11   14 1
  21   12   13 ar
  22   12   16 1
  23   13   23 1
  24   14   15 1
  25   15   24 1
  26   15   25 1
  27   15   26 1
  28   16   17 1
  29   17   27 1
  30   17   28 1
  31   17   29 1

#	End of record

