#	Name: ASD01912654
#	Creating user name:	WinNT
#	Creation time:	15. 06. 2019 20:00

#	Modifying user name:	WinNT
#	Modification time:	15. 06. 2019 20:00

#	Program:	/corina/corina34_cracker 3.40 0067  02.08.2006

@<TRIPOS>MOLECULE
ASD01912654
  40   43    0    0    0
SMALL
NO_CHARGES


@<TRIPOS>ATOM
   1 C1             0.0232     1.5379     0.1061 C.2     
   2 N2             0.0914     0.1719     0.0106 N.pl3   
   3 C3            -1.0871    -0.5556    -0.0698 C.2     
   4 C4            -2.2698     0.0445    -0.0558 C.2     
   5 N5            -2.3927     1.4190     0.0386 N.am    
   6 C6            -1.2866     2.1913     0.1266 C.2     
   7 C7             1.3248     1.9987     0.1700 C.2     
   8 C8             2.1202     0.8556     0.1078 C.2     
   9 N9             1.3271    -0.1853     0.0148 N.2     
  10 O10           -1.3775     3.4026     0.2103 O.2     
  11 C11           -3.6544     2.0062     0.0488 C.ar    
  12 C12            3.6264     0.8214     0.1414 C.3     
  13 O13            4.1308     2.1542     0.2482 O.3     
  14 C14            5.4812     2.3012     0.2910 C.ar    
  15 C15            6.0393     3.5671     0.3943 C.ar    
  16 C16            7.4122     3.7139     0.4376 C.ar    
  17 C17            8.2300     2.6006     0.3779 C.ar    
  18 C18            7.6762     1.3379     0.2744 C.ar    
  19 C19            6.3037     1.1853     0.2370 C.ar    
  20 N20           -4.2896     2.2212     1.1962 N.ar    
  21 C21           -5.4840     2.7772     1.2100 C.ar    
  22 N22           -6.0945     3.1404     0.1001 N.ar    
  23 C23           -5.5252     2.9586    -1.0826 C.ar    
  24 C24           -4.2700     2.3836    -1.1451 C.ar    
  25 C25           -3.5879     2.1601    -2.4701 C.3     
  26 H26           -1.0406    -1.6319    -0.1456 H       
  27 H27           -3.1637    -0.5581    -0.1203 H       
  28 H28            1.6547     3.0239     0.2508 H       
  29 H29            3.9575     0.2377     1.0003 H       
  30 H30            4.0000     0.3639    -0.7747 H       
  31 H31            5.4010     4.4371     0.4406 H       
  32 H32            7.8473     4.6992     0.5177 H       
  33 H33            9.3031     2.7174     0.4119 H       
  34 H34            8.3170     0.4699     0.2273 H       
  35 H35            5.8715     0.1988     0.1562 H       
  36 H36           -5.9766     2.9395     2.1574 H       
  37 H37           -6.0342     3.2596    -1.9864 H       
  38 H38           -3.0318     3.0554    -2.7482 H       
  39 H39           -2.9018     1.3171    -2.3879 H       
  40 H40           -4.3367     1.9460    -3.2327 H       
@<TRIPOS>BOND
   1    1    2 1
   2    1    7 2
   3    1    6 1
   4    2    3 1
   5    2    9 1
   6    3    4 2
   7    3   26 1
   8    4    5 1
   9    4   27 1
  10    5    6 am
  11    5   11 1
  12    6   10 2
  13    7    8 1
  14    7   28 1
  15    8    9 2
  16    8   12 1
  17   11   20 ar
  18   11   24 ar
  19   12   13 1
  20   12   29 1
  21   12   30 1
  22   13   14 1
  23   14   15 ar
  24   14   19 ar
  25   15   16 ar
  26   15   31 1
  27   16   17 ar
  28   16   32 1
  29   17   18 ar
  30   17   33 1
  31   18   19 ar
  32   18   34 1
  33   19   35 1
  34   20   21 ar
  35   21   22 ar
  36   21   36 1
  37   22   23 ar
  38   23   24 ar
  39   23   37 1
  40   24   25 1
  41   25   38 1
  42   25   39 1
  43   25   40 1

#	End of record

