#	Name: ASD03430612
#	Creating user name:	WinNT
#	Creation time:	15. 06. 2019 20:41

#	Modifying user name:	WinNT
#	Modification time:	15. 06. 2019 20:41

#	Program:	/corina/corina34_cracker 3.40 0067  02.08.2006

@<TRIPOS>MOLECULE
ASD03430612
  62   67    0    0    0
SMALL
NO_CHARGES


@<TRIPOS>ATOM
   1 N1            -0.0157     1.4932     0.4901 N.am    
   2 C2             0.0409     0.2263     0.9344 C.2     
   3 C3             1.4805    -0.0488     1.3138 C.3     
   4 C4             2.1944     1.2486     1.0118 C.ar    
   5 C5             3.5068     1.6460     1.1354 C.ar    
   6 C6             3.8770     2.9283     0.7697 C.ar    
   7 C7             2.9262     3.8059     0.2812 C.ar    
   8 C8             1.6107     3.4103     0.1564 C.ar    
   9 C9             1.2302     2.1206     0.5226 C.ar    
  10 O10           -0.8869    -0.5505     1.0164 O.2     
  11 C11            2.1176    -1.5882     3.1801 C.ar    
  12 C12            1.5859    -0.3806     2.7800 C.ar    
  13 C13            1.1489     0.5277     3.7330 C.ar    
  14 C14            1.2537     0.2137     5.0775 C.ar    
  15 C15            1.7904    -1.0021     5.4773 C.ar    
  16 C16            1.8818    -1.2751     6.9559 C.3     
  17 C17            2.0702    -2.7682     7.2159 C.3     
  18 C18            3.2367    -3.2659     6.3543 C.3     
  19 C19            2.7974    -3.2475     4.8917 C.3     
  20 C20            2.2193    -1.9045     4.5289 C.ar    
  21 O21            0.6211     1.7197     3.3490 O.3     
  22 O22            2.0136    -1.1103     0.5193 O.3     
  23 C23           -1.2434     2.1395     0.0197 C.3     
  24 C24           -0.9991     2.7578    -1.3327 C.ar    
  25 C25           -1.5151     4.0065    -1.6251 C.ar    
  26 C26           -1.2910     4.5737    -2.8657 C.ar    
  27 C27           -0.5507     3.8924    -3.8136 C.ar    
  28 C28           -0.0340     2.6442    -3.5209 C.ar    
  29 C29           -0.2543     2.0788    -2.2788 C.ar    
  30 C30           -2.3417     1.1132    -0.0881 C.ar    
  31 C31           -3.4804     1.2356     0.6860 C.ar    
  32 C32           -4.4879     0.2942     0.5871 C.ar    
  33 C33           -4.3568    -0.7692    -0.2863 C.ar    
  34 C34           -3.2185    -0.8911    -1.0611 C.ar    
  35 C35           -2.2129     0.0526    -0.9653 C.ar    
  36 H36            4.2463     0.9579     1.5176 H       
  37 H37            4.9057     3.2431     0.8658 H       
  38 H38            3.2153     4.8067    -0.0038 H       
  39 H39            0.8740     4.1014    -0.2259 H       
  40 H40            2.4542    -2.2967     2.4377 H       
  41 H41            0.9154     0.9205     5.8208 H       
  42 H42            2.7286    -0.7284     7.3707 H       
  43 H43            0.9653    -0.9387     7.4408 H       
  44 H44            2.2963    -2.9317     8.2696 H       
  45 H45            1.1604    -3.3053     6.9476 H       
  46 H46            4.0972    -2.6102     6.4874 H       
  47 H47            3.5007    -4.2825     6.6456 H       
  48 H48            3.6584    -3.4519     4.2552 H       
  49 H49            2.0431    -4.0183     4.7333 H       
  50 H50           -0.3364     1.7011     3.2154 H       
  51 H51            1.5527    -1.9533     0.6290 H       
  52 H52           -1.5391     2.9153     0.7259 H       
  53 H53           -2.0935     4.5388    -0.8845 H       
  54 H54           -1.6947     5.5490    -3.0944 H       
  55 H55           -0.3762     4.3353    -4.7831 H       
  56 H56            0.5442     2.1118    -4.2616 H       
  57 H57            0.1525     1.1052    -2.0488 H       
  58 H58           -3.5828     2.0665     1.3683 H       
  59 H59           -5.3772     0.3895     1.1924 H       
  60 H60           -5.1436    -1.5051    -0.3630 H       
  61 H61           -3.1159    -1.7221    -1.7431 H       
  62 H62           -1.3252    -0.0405    -1.5733 H       
@<TRIPOS>BOND
   1    1    2 am
   2    1    9 1
   3    1   23 1
   4    2    3 1
   5    2   10 2
   6    3    4 1
   7    3   12 1
   8    3   22 1
   9    4    5 ar
  10    4    9 ar
  11    5    6 ar
  12    5   36 1
  13    6    7 ar
  14    6   37 1
  15    7    8 ar
  16    7   38 1
  17    8    9 ar
  18    8   39 1
  19   11   12 ar
  20   11   20 ar
  21   11   40 1
  22   12   13 ar
  23   13   14 ar
  24   13   21 1
  25   14   15 ar
  26   14   41 1
  27   15   16 1
  28   15   20 ar
  29   16   17 1
  30   16   42 1
  31   16   43 1
  32   17   18 1
  33   17   44 1
  34   17   45 1
  35   18   19 1
  36   18   46 1
  37   18   47 1
  38   19   20 1
  39   19   48 1
  40   19   49 1
  41   21   50 1
  42   22   51 1
  43   23   24 1
  44   23   30 1
  45   23   52 1
  46   24   25 ar
  47   24   29 ar
  48   25   26 ar
  49   25   53 1
  50   26   27 ar
  51   26   54 1
  52   27   28 ar
  53   27   55 1
  54   28   29 ar
  55   28   56 1
  56   29   57 1
  57   30   31 ar
  58   30   35 ar
  59   31   32 ar
  60   31   58 1
  61   32   33 ar
  62   32   59 1
  63   33   34 ar
  64   33   60 1
  65   34   35 ar
  66   34   61 1
  67   35   62 1

#	End of record

