#	Name: ASD03330105
#	Creating user name:	WinNT
#	Creation time:	15. 06. 2019 20:36

#	Modifying user name:	WinNT
#	Modification time:	15. 06. 2019 20:36

#	Program:	/corina/corina34_cracker 3.40 0067  02.08.2006

@<TRIPOS>MOLECULE
ASD03330105
  35   37    0    0    0
SMALL
NO_CHARGES


@<TRIPOS>ATOM
   1 C1            -2.1134     1.3637    -0.7749 C.ar    
   2 C2            -2.1062    -0.0177    -0.7878 C.ar    
   3 C3            -1.1983    -0.7151     0.0097 C.ar    
   4 C4            -0.3017    -0.0105     0.8166 C.ar    
   5 C5            -0.3191     1.3719     0.8204 C.ar    
   6 C6            -1.2174     2.0569     0.0235 C.ar    
   7 C7            -1.1856    -2.1940     0.0011 C.2     
   8 N8            -2.2834    -3.0009     0.1039 N.pl3   
   9 C9            -1.8492    -4.2821     0.0690 C.2     
  10 C10           -0.4940    -4.2468    -0.0706 C.2     
  11 N11           -0.1188    -2.9492    -0.1122 N.2     
  12 C12           -3.6776    -2.5633     0.2184 C.3     
  13 C13           -4.4860    -3.6262     0.9657 C.3     
  14 C14           -5.0506    -4.6413    -0.0272 C.3     
  15 C15           -3.9189    -5.3545    -0.7608 C.3     
  16 C16           -2.7183    -5.5072     0.1782 C.3     
  17 C17            0.4000    -5.4126    -0.1644 C.2     
  18 O18           -0.0603    -6.5366    -0.1186 O.2     
  19 O19            1.7289    -5.2336    -0.3011 O.3     
  20 F20           -2.9919     2.0404    -1.5466 F       
  21 F21            0.5802    -0.6785     1.5920 F       
  22 H22           -2.8022    -0.5567    -1.4135 H       
  23 H23            0.3733     1.9179     1.4440 H       
  24 H24           -1.2268     3.1369     0.0297 H       
  25 H25           -3.7192    -1.6226     0.7674 H       
  26 H26           -4.0969    -2.4216    -0.7777 H       
  27 H27           -3.8398    -4.1379     1.6789 H       
  28 H28           -5.3065    -3.1477     1.5005 H       
  29 H29           -5.6510    -5.3755     0.5100 H       
  30 H30           -5.6807    -4.1251    -0.7515 H       
  31 H31           -4.2575    -6.3399    -1.0809 H       
  32 H32           -3.6260    -4.7699    -1.6329 H       
  33 H33           -2.1433    -6.3886    -0.1058 H       
  34 H34           -3.0695    -5.6147     1.2044 H       
  35 H35            2.2755    -6.0292    -0.3586 H       
@<TRIPOS>BOND
   1    1    2 ar
   2    1   20 1
   3    1    6 ar
   4    2    3 ar
   5    2   22 1
   6    3    4 ar
   7    3    7 1
   8    4    5 ar
   9    4   21 1
  10    5    6 ar
  11    5   23 1
  12    6   24 1
  13    7    8 1
  14    7   11 2
  15    8    9 1
  16    8   12 1
  17    9   10 2
  18    9   16 1
  19   10   11 1
  20   10   17 1
  21   12   13 1
  22   12   25 1
  23   12   26 1
  24   13   14 1
  25   13   27 1
  26   13   28 1
  27   14   15 1
  28   14   29 1
  29   14   30 1
  30   15   16 1
  31   15   31 1
  32   15   32 1
  33   16   33 1
  34   16   34 1
  35   17   18 2
  36   17   19 1
  37   19   35 1

#	End of record

