#	Name: ASD01700002
#	Creating user name:	WinNT
#	Creation time:	15. 06. 2019 19:22

#	Modifying user name:	WinNT
#	Modification time:	15. 06. 2019 19:22

#	Program:	/corina/corina34_cracker 3.40 0067  02.08.2006

@<TRIPOS>MOLECULE
ASD01700002
  63   66    0    0    0
SMALL
NO_CHARGES


@<TRIPOS>ATOM
   1 C1             3.0370     4.3124     2.9583 C.ar    
   2 C2             3.8832     3.7114     3.8721 C.ar    
   3 C3             4.7541     2.7174     3.4635 C.ar    
   4 C4             4.7810     2.3215     2.1412 C.ar    
   5 C5             3.9317     2.9230     1.2200 C.ar    
   6 C6             3.0585     3.9215     1.6339 C.ar    
   7 C7             2.1352     4.5763     0.6390 C.3     
   8 C8             0.6833     4.3534     1.0670 C.3     
   9 C9             5.3042     1.2799    -0.5185 C.ar    
  10 C10            5.0517    -0.0883    -0.5301 C.ar    
  11 C11            6.0985    -0.9826    -0.5746 C.ar    
  12 C12            7.4132    -0.5153    -0.6081 C.ar    
  13 C13            7.6640     0.8580    -0.5963 C.ar    
  14 C14            6.6143     1.7482    -0.5518 C.ar    
  15 C15            8.6149    -2.5360     0.2429 C.ar    
  16 C16            9.6893    -3.4139     0.1639 C.ar    
  17 N17           10.6378    -3.2545    -0.7502 N.ar    
  18 C18           10.6114    -2.2675    -1.6207 C.ar    
  19 C19            9.5705    -1.3388    -1.6148 C.ar    
  20 C20            8.5399    -1.4743    -0.6555 C.ar    
  21 C21            8.5579    -5.2990     1.0046 C.3     
  22 C22            8.6091    -6.3450     2.1233 C.3     
  23 N23            9.8727    -7.0891     2.0098 N.am    
  24 C24           11.1251    -6.3235     1.9162 C.3     
  25 C25           10.9748    -5.2784     0.8056 C.3     
  26 N26            9.7718    -4.4731     1.0549 N.3     
  27 S27            3.9629     2.4215    -0.4688 S.3     
  28 C28            9.8828    -8.4367     1.9924 C.2     
  29 O29            8.8509    -9.0530     2.1543 O.2     
  30 C30           11.1764    -9.1778     1.7719 C.3     
  31 C31            2.4261     6.0775     0.5846 C.3     
  32 C32            9.5460    -0.2663    -2.5634 C.1     
  33 N33            9.5266     0.5846    -3.3159 N.1     
  34 N34            6.8797     3.2045    -0.5393 N.pl3   
  35 O35            8.0261     3.6149    -0.5684 O.2     
  36 O36            5.9516     3.9923    -0.4999 O.2     
  37 H37            2.3555     5.0853     3.2815 H       
  38 H38            3.8643     4.0191     4.9071 H       
  39 H39            5.4141     2.2507     4.1798 H       
  40 H40            5.4615     1.5456     1.8228 H       
  41 H41            2.2946     4.1394    -0.3468 H       
  42 H42            0.5240     4.7903     2.0528 H       
  43 H43            0.0156     4.8270     0.3474 H       
  44 H44            0.4761     3.2839     1.1057 H       
  45 H45            4.0342    -0.4495    -0.5038 H       
  46 H46            5.9021    -2.0446    -0.5833 H       
  47 H47            8.6806     1.2219    -0.6218 H       
  48 H48            7.8462    -2.6777     0.9882 H       
  49 H49           11.4049    -2.1754    -2.3476 H       
  50 H50            8.4997    -5.8016     0.0392 H       
  51 H51            7.6812    -4.6655     1.1389 H       
  52 H52            8.5629    -5.8476     3.0921 H       
  53 H53            7.7692    -7.0321     2.0209 H       
  54 H54           11.3207    -5.8240     2.8650 H       
  55 H55           11.9485    -6.9964     1.6768 H       
  56 H56           11.8509    -4.6299     0.7955 H       
  57 H57           10.8829    -5.7812    -0.1571 H       
  58 H58           12.0027    -8.4673     1.7490 H       
  59 H59           11.3308    -9.8886     2.5837 H       
  60 H60           11.1312    -9.7133     0.8237 H       
  61 H61            3.4604     6.2363     0.2797 H       
  62 H62            1.7583     6.5511    -0.1350 H       
  63 H63            2.2667     6.5144     1.5704 H       
@<TRIPOS>BOND
   1    1    2 ar
   2    1    6 ar
   3    1   37 1
   4    2    3 ar
   5    2   38 1
   6    3    4 ar
   7    3   39 1
   8    4    5 ar
   9    4   40 1
  10    5    6 ar
  11    5   27 1
  12    6    7 1
  13    7    8 1
  14    7   31 1
  15    7   41 1
  16    8   42 1
  17    8   43 1
  18    8   44 1
  19    9   10 ar
  20    9   14 ar
  21    9   27 1
  22   10   11 ar
  23   10   45 1
  24   11   12 ar
  25   11   46 1
  26   12   13 ar
  27   12   20 1
  28   13   14 ar
  29   13   47 1
  30   14   34 1
  31   15   16 ar
  32   15   20 ar
  33   15   48 1
  34   16   17 ar
  35   16   26 1
  36   17   18 ar
  37   18   19 ar
  38   18   49 1
  39   19   20 ar
  40   19   32 1
  41   21   22 1
  42   21   26 1
  43   21   50 1
  44   21   51 1
  45   22   23 1
  46   22   52 1
  47   22   53 1
  48   23   24 1
  49   23   28 am
  50   24   25 1
  51   24   54 1
  52   24   55 1
  53   25   26 1
  54   25   56 1
  55   25   57 1
  56   28   29 2
  57   28   30 1
  58   30   58 1
  59   30   59 1
  60   30   60 1
  61   31   61 1
  62   31   62 1
  63   31   63 1
  64   32   33 3
  65   34   35 2
  66   34   36 2

#	End of record

