#	Name: ASD00310129
#	Creating user name:	WinNT
#	Creation time:	15. 06. 2019 18:33

#	Modifying user name:	WinNT
#	Modification time:	15. 06. 2019 18:33

#	Program:	/corina/corina34_cracker 3.40 0067  02.08.2006

@<TRIPOS>MOLECULE
ASD00310129
  40   43    0    0    0
SMALL
NO_CHARGES


@<TRIPOS>ATOM
   1 N1            -0.0163     1.3499     0.0095 N.pl3   
   2 C2             0.0021    -0.0041     0.0020 C.2     
   3 C3             1.2922    -0.4483    -0.0127 C.2     
   4 C4             2.1476     0.7538    -0.0144 C.ar    
   5 C5             3.5233     0.9581    -0.0268 C.ar    
   6 C6             4.0243     2.2535    -0.0251 C.ar    
   7 C7             3.1470     3.3433    -0.0108 C.ar    
   8 C8             1.7854     3.1434     0.0015 C.ar    
   9 C9             1.2698     1.8501    -0.0001 C.ar    
  10 C10            1.7402    -1.8454    -0.0240 C.2     
  11 O11            2.9286    -2.1027    -0.0364 O.2     
  12 O12            0.8342    -2.8441    -0.0208 O.3     
  13 C13            8.1392     2.8946    -0.0602 C.ar    
  14 N14            7.3801     3.5354    -0.9373 N.ar    
  15 C15            6.0709     3.3583    -0.9579 C.ar    
  16 C16            5.4904     2.4817    -0.0378 C.ar    
  17 C17            6.3252     1.8256     0.8703 C.ar    
  18 N18            7.6258     2.0555     0.8278 N.ar    
  19 N19            9.5072     3.1034    -0.0755 N.3     
  20 C20           10.1732     2.3084     0.9666 C.3     
  21 C21           11.6863     2.5229     0.8755 C.3     
  22 O22           11.9729     3.9191     0.9936 O.3     
  23 C23           11.3407     4.7231    -0.0060 C.3     
  24 C24            9.8240     4.5309     0.0761 C.3     
  25 Cl25           3.7807     4.9596    -0.0081 Cl      
  26 H26           -0.8206     1.8921     0.0164 H       
  27 H27           -0.8729    -0.6372     0.0075 H       
  28 H28            4.1978     0.1147    -0.0374 H       
  29 H29            1.1160     3.9909     0.0124 H       
  30 H30            1.1772    -3.7482    -0.0286 H       
  31 H31            5.4582     3.8841    -1.6752 H       
  32 H32            5.9135     1.1408     1.5969 H       
  33 H33            9.8192     2.6249     1.9477 H       
  34 H34            9.9457     1.2526     0.8199 H       
  35 H35           12.1800     1.9805     1.6819 H       
  36 H36           12.0486     2.1570    -0.0852 H       
  37 H37           11.5844     5.7720     0.1628 H       
  38 H38           11.6929     4.4212    -0.9924 H       
  39 H39            9.3417     5.0974    -0.7205 H       
  40 H40            9.4644     4.8829     1.0430 H       
@<TRIPOS>BOND
   1    1    2 1
   2    1    9 1
   3    1   26 1
   4    2    3 2
   5    2   27 1
   6    3    4 1
   7    3   10 1
   8    4    5 ar
   9    4    9 ar
  10    5    6 ar
  11    5   28 1
  12    6    7 ar
  13    6   16 1
  14    7    8 ar
  15    7   25 1
  16    8    9 ar
  17    8   29 1
  18   10   11 2
  19   10   12 1
  20   12   30 1
  21   13   14 ar
  22   13   18 ar
  23   13   19 1
  24   14   15 ar
  25   15   16 ar
  26   15   31 1
  27   16   17 ar
  28   17   18 ar
  29   17   32 1
  30   19   20 1
  31   19   24 1
  32   20   21 1
  33   20   33 1
  34   20   34 1
  35   21   22 1
  36   21   35 1
  37   21   36 1
  38   22   23 1
  39   23   24 1
  40   23   37 1
  41   23   38 1
  42   24   39 1
  43   24   40 1

#	End of record

