#	Name: ASD02560558
#	Creating user name:	WinNT
#	Creation time:	15. 06. 2019 20:25

#	Modifying user name:	WinNT
#	Modification time:	15. 06. 2019 20:25

#	Program:	/corina/corina34_cracker 3.40 0067  02.08.2006

@<TRIPOS>MOLECULE
ASD02560558
  61   64    0    0    0
SMALL
NO_CHARGES


@<TRIPOS>ATOM
   1 N1            -0.0190     1.2805     0.0816 N.2     
   2 N2            -0.0009    -0.0042     0.0568 N.2     
   3 C3             1.1979     1.7477     0.0504 C.2     
   4 N4             2.0455     0.6720     0.0023 N.pl3   
   5 C5             1.2383    -0.4338     0.0079 C.2     
   6 S6             1.7635    -2.1150    -0.0411 S.3     
   7 C7             0.1567    -2.9475    -0.0039 C.3     
   8 C8             0.3632    -4.4398    -0.0389 C.2     
   9 O9             1.4862    -4.8957    -0.0844 O.2     
  10 N10           -0.7000    -5.2679    -0.0195 N.am    
  11 C11            3.4442     0.6983    -0.0439 C.ar    
  12 Br12           1.6999     3.5707     0.0674 Br      
  13 C13            4.1782     0.6889     1.1217 C.ar    
  14 C14            5.5694     0.7143     1.0871 C.ar    
  15 C15            6.2425     0.7492    -0.0959 C.ar    
  16 C16            5.5310     0.7598    -1.3074 C.ar    
  17 C17            4.1147     0.7288    -1.2845 C.ar    
  18 C18           -0.5132    -6.6455    -0.1340 C.ar    
  19 C19           -1.5319    -7.4445    -0.6468 C.ar    
  20 C20           -1.3501    -8.8051    -0.7614 C.ar    
  21 C21           -0.1415    -9.3828    -0.3622 C.ar    
  22 C22            0.8781    -8.5777     0.1518 C.ar    
  23 C23            0.6920    -7.2173     0.2589 C.ar    
  24 C24            0.0569   -10.8404    -0.4830 C.2     
  25 O25           -0.8314   -11.5399    -0.9301 O.2     
  26 Cl26          -3.0325    -6.7253    -1.1416 Cl      
  27 N27            1.2228   -11.3959    -0.0977 N.am    
  28 C28            7.7492     0.7767    -0.1058 C.3     
  29 C29            3.4051     0.7391    -2.4959 C.ar    
  30 C30            6.1987     0.7956    -2.5440 C.ar    
  31 C31            5.4781     0.8050    -3.6985 C.ar    
  32 C32            4.0849     0.7787    -3.6747 C.ar    
  33 C33            1.4198   -12.8427    -0.2175 C.3     
  34 C34            2.7963   -13.2050     0.2775 C.2     
  35 O35            3.5367   -12.3431     0.6884 O.2     
  36 O36            3.1996   -14.4851     0.2621 O.3     
  37 C37            4.5378   -14.7606     0.7539 C.3     
  38 C38            8.2322     2.2250    -0.2074 C.3     
  39 H39           -0.3725    -2.6752     0.9092 H       
  40 H40           -0.4310    -2.6416    -0.8695 H       
  41 H41           -1.5950    -4.9059     0.0740 H       
  42 H42            3.6683     0.6617     2.0733 H       
  43 H43            6.1240     0.7067     2.0138 H       
  44 H44           -2.1404    -9.4247    -1.1588 H       
  45 H45            1.8130    -9.0212     0.4610 H       
  46 H46            1.4801    -6.5949     0.6562 H       
  47 H47            1.9315   -10.8379     0.2590 H       
  48 H48            8.1269     0.3315     0.8147 H       
  49 H49            8.1174     0.2101    -0.9611 H       
  50 H50            2.3253     0.7154    -2.4926 H       
  51 H51            7.2779     0.8158    -2.5777 H       
  52 H52            5.9935     0.8329    -4.6471 H       
  53 H53            3.5366     0.7867    -4.6052 H       
  54 H54            0.6704   -13.3621     0.3798 H       
  55 H55            1.3201   -13.1376    -1.2621 H       
  56 H56            5.2654   -14.2169     0.1513 H       
  57 H57            4.6158   -14.4414     1.7932 H       
  58 H58            4.7367   -15.8301     0.6864 H       
  59 H59            7.8545     2.6701    -1.1279 H       
  60 H60            7.8640     2.7916     0.6478 H       
  61 H61            9.3220     2.2449    -0.2146 H       
@<TRIPOS>BOND
   1    1    2 1
   2    1    3 2
   3    2    5 2
   4    3    4 1
   5    3   12 1
   6    4    5 1
   7    4   11 1
   8    5    6 1
   9    6    7 1
  10    7    8 1
  11    7   39 1
  12    7   40 1
  13    8    9 2
  14    8   10 am
  15   10   18 1
  16   10   41 1
  17   11   13 ar
  18   11   17 ar
  19   13   14 ar
  20   13   42 1
  21   14   15 ar
  22   14   43 1
  23   15   16 ar
  24   15   28 1
  25   16   17 ar
  26   16   30 ar
  27   17   29 ar
  28   18   19 ar
  29   18   23 ar
  30   19   20 ar
  31   19   26 1
  32   20   21 ar
  33   20   44 1
  34   21   22 ar
  35   21   24 1
  36   22   23 ar
  37   22   45 1
  38   23   46 1
  39   24   25 2
  40   24   27 am
  41   27   33 1
  42   27   47 1
  43   28   38 1
  44   28   48 1
  45   28   49 1
  46   29   32 ar
  47   29   50 1
  48   30   31 ar
  49   30   51 1
  50   31   32 ar
  51   31   52 1
  52   32   53 1
  53   33   34 1
  54   33   54 1
  55   33   55 1
  56   34   35 2
  57   34   36 1
  58   36   37 1
  59   37   56 1
  60   37   57 1
  61   37   58 1
  62   38   59 1
  63   38   60 1
  64   38   61 1

#	End of record

