#	Name: ASD05842006
#	Creating user name:	WinNT
#	Creation time:	15. 06. 2019 21:03

#	Modifying user name:	WinNT
#	Modification time:	15. 06. 2019 21:03

#	Program:	/corina/corina34_cracker 3.40 0067  02.08.2006

@<TRIPOS>MOLECULE
ASD05842006
  46   48    0    0    0
SMALL
NO_CHARGES


@<TRIPOS>ATOM
   1 C1             0.2904     1.7023     0.2371 C.ar    
   2 C2             0.4773     0.6271     1.0856 C.ar    
   3 C3            -0.6038    -0.1397     1.4782 C.ar    
   4 C4            -1.8719     0.1689     1.0227 C.ar    
   5 C5            -2.0589     1.2446     0.1748 C.ar    
   6 C6            -0.9785     2.0141    -0.2142 C.ar    
   7 C7             1.4690     2.5382    -0.1909 C.3     
   8 N8             1.6959     2.3632    -1.6317 N.3     
   9 C9             2.5904     3.4049    -2.1541 C.3     
  10 C10            2.2221     1.0229    -1.9228 C.3     
  11 C11            1.0724     0.0135    -1.9272 C.3     
  12 C12            1.5877    -1.3330    -2.3658 C.ar    
  13 C13            2.0646    -2.2295    -1.4279 C.ar    
  14 C14            2.5374    -3.4646    -1.8302 C.ar    
  15 C15            2.5329    -3.8034    -3.1704 C.ar    
  16 C16            2.0551    -2.9072    -4.1082 C.ar    
  17 C17            1.5783    -1.6738    -3.7054 C.ar    
  18 C18            1.9095     4.7459    -2.0586 C.ar    
  19 C19            2.0560     5.5159    -0.9200 C.ar    
  20 C20            1.4314     6.7460    -0.8325 C.ar    
  21 C21            0.6606     7.2062    -1.8837 C.ar    
  22 C22            0.5149     6.4365    -3.0226 C.ar    
  23 C23            1.1430     5.2084    -3.1119 C.ar    
  24 H24            1.4681     0.3860     1.4416 H       
  25 H25           -0.4576    -0.9801     2.1406 H       
  26 H26           -2.7164    -0.4306     1.3288 H       
  27 H27           -3.0496     1.4856    -0.1814 H       
  28 H28           -1.1246     2.8545    -0.8766 H       
  29 H29            1.2655     3.5881     0.0200 H       
  30 H30            2.3565     2.2227     0.3576 H       
  31 H31            3.5096     3.4216    -1.5684 H       
  32 H32            2.8274     3.1911    -3.1963 H       
  33 H33            2.7059     1.0268    -2.8995 H       
  34 H34            2.9478     0.7437    -1.1590 H       
  35 H35            0.6552    -0.0665    -0.9234 H       
  36 H36            0.2976     0.3483    -2.6170 H       
  37 H37            2.0682    -1.9648    -0.3808 H       
  38 H38            2.9107    -4.1648    -1.0975 H       
  39 H39            2.9029    -4.7681    -3.4848 H       
  40 H40            2.0519    -3.1718    -5.1553 H       
  41 H41            1.2050    -0.9736    -4.4381 H       
  42 H42            2.6582     5.1564    -0.0987 H       
  43 H43            1.5453     7.3473     0.0574 H       
  44 H44            0.1721     8.1669    -1.8150 H       
  45 H45           -0.0876     6.7959    -3.8438 H       
  46 H46            1.0292     4.6070    -4.0018 H       
@<TRIPOS>BOND
   1    1    2 ar
   2    1    7 1
   3    1    6 ar
   4    2    3 ar
   5    2   24 1
   6    3    4 ar
   7    3   25 1
   8    4    5 ar
   9    4   26 1
  10    5    6 ar
  11    5   27 1
  12    6   28 1
  13    7    8 1
  14    7   29 1
  15    7   30 1
  16    8    9 1
  17    8   10 1
  18    9   18 1
  19    9   31 1
  20    9   32 1
  21   10   11 1
  22   10   33 1
  23   10   34 1
  24   11   12 1
  25   11   35 1
  26   11   36 1
  27   12   13 ar
  28   12   17 ar
  29   13   14 ar
  30   13   37 1
  31   14   15 ar
  32   14   38 1
  33   15   16 ar
  34   15   39 1
  35   16   17 ar
  36   16   40 1
  37   17   41 1
  38   18   19 ar
  39   18   23 ar
  40   19   20 ar
  41   19   42 1
  42   20   21 ar
  43   20   43 1
  44   21   22 ar
  45   21   44 1
  46   22   23 ar
  47   22   45 1
  48   23   46 1

#	End of record

