#	Name: ASD05380067
#	Creating user name:	WinNT
#	Creation time:	15. 06. 2019 20:59

#	Modifying user name:	WinNT
#	Modification time:	15. 06. 2019 20:59

#	Program:	/corina/corina34_cracker 3.40 0067  02.08.2006

@<TRIPOS>MOLECULE
ASD05380067
  49   53    0    0    0
SMALL
NO_CHARGES


@<TRIPOS>ATOM
   1 C1            -0.3095     1.6452     0.3423 C.ar    
   2 C2            -0.3160     0.2587     0.0698 C.ar    
   3 C3             0.8969     2.3095     0.5526 C.ar    
   4 C4             2.0794     1.6047     0.4928 C.ar    
   5 C5             2.0768     0.2423     0.2248 C.ar    
   6 C6             0.8954    -0.4332     0.0149 C.ar    
   7 N7            -1.5025    -0.3669    -0.1317 N.2     
   8 C8            -2.6289     0.2770    -0.0801 C.2     
   9 N9            -2.7170     1.6101     0.1751 N.am    
  10 C10           -1.6019     2.3435     0.3998 C.2     
  11 C11           -3.9747     2.2288     0.2121 C.ar    
  12 C12           -4.6431     2.3771     1.4218 C.ar    
  13 C13           -4.5539     2.7007    -0.9601 C.ar    
  14 C14           -5.7950     3.3105    -0.9195 C.ar    
  15 C15           -6.4592     3.4510     0.2850 C.ar    
  16 C16           -5.8839     2.9881     1.4540 C.ar    
  17 C17           -3.9036    -0.4917    -0.3155 C.3     
  18 N18           -3.6716    -1.5229    -1.3299 N.pl3   
  19 C19           -4.7280    -1.9995    -2.0864 C.ar    
  20 N20           -5.9591    -1.5325    -1.9053 N.ar    
  21 O21           -1.6659     3.5372     0.6298 O.2     
  22 C22           -4.5230    -2.9841    -3.0676 C.ar    
  23 C23           -5.6344    -3.4286    -3.8038 C.ar    
  24 N24           -6.8293    -2.9064    -3.5479 N.ar    
  25 C25           -6.9730    -1.9813    -2.6223 C.ar    
  26 N26           -3.4446    -3.6672    -3.5211 N.2     
  27 C27           -3.8143    -4.4827    -4.4655 C.2     
  28 N28           -5.1565    -4.3728    -4.6769 N.pl3   
  29 F29           -3.9055     2.5643    -2.1375 F       
  30 F30           -4.0820     1.9248     2.5645 F       
  31 C31            0.9085     3.7882     0.8431 C.3     
  32 C32           -4.3493    -1.1523     0.9906 C.3     
  33 H33            3.0164     2.1165     0.6554 H       
  34 H34            3.0130    -0.2943     0.1809 H       
  35 H35            0.9059    -1.4931    -0.1924 H       
  36 H36           -6.2455     3.6777    -1.8297 H       
  37 H37           -7.4279     3.9276     0.3135 H       
  38 H38           -6.4058     3.0997     2.3929 H       
  39 H39           -4.6805     0.1900    -0.6615 H       
  40 H40           -2.7776    -1.8717    -1.4714 H       
  41 H41           -7.9572    -1.5746    -2.4424 H       
  42 H42           -3.1549    -5.1484    -5.0026 H       
  43 H43           -5.6781    -4.8713    -5.3252 H       
  44 H44            0.7293     3.9512     1.9058 H       
  45 H45            1.8781     4.2045     0.5701 H       
  46 H46            0.1264     4.2785     0.2633 H       
  47 H47           -5.3015    -1.6594     0.8347 H       
  48 H48           -3.5989    -1.8773     1.3056 H       
  49 H49           -4.4651    -0.3908     1.7618 H       
@<TRIPOS>BOND
   1    1    2 ar
   2    1    3 ar
   3    1   10 1
   4    2    7 1
   5    2    6 ar
   6    3    4 ar
   7    3   31 1
   8    4    5 ar
   9    4   33 1
  10    5    6 ar
  11    5   34 1
  12    6   35 1
  13    7    8 2
  14    8    9 1
  15    8   17 1
  16    9   10 am
  17    9   11 1
  18   10   21 2
  19   11   12 ar
  20   11   13 ar
  21   12   30 1
  22   12   16 ar
  23   13   14 ar
  24   13   29 1
  25   14   15 ar
  26   14   36 1
  27   15   16 ar
  28   15   37 1
  29   16   38 1
  30   17   18 1
  31   17   32 1
  32   17   39 1
  33   18   19 1
  34   18   40 1
  35   19   20 ar
  36   19   22 ar
  37   20   25 ar
  38   22   23 ar
  39   22   26 1
  40   23   24 ar
  41   23   28 1
  42   24   25 ar
  43   25   41 1
  44   26   27 2
  45   27   28 1
  46   27   42 1
  47   28   43 1
  48   31   44 1
  49   31   45 1
  50   31   46 1
  51   32   47 1
  52   32   48 1
  53   32   49 1

#	End of record

