#	Name: ASD03092172
#	Creating user name:	WinNT
#	Creation time:	15. 06. 2019 20:32

#	Modifying user name:	WinNT
#	Modification time:	15. 06. 2019 20:32

#	Program:	/corina/corina34_cracker 3.40 0067  02.08.2006

@<TRIPOS>MOLECULE
ASD03092172
  53   56    0    0    0
SMALL
NO_CHARGES


@<TRIPOS>ATOM
   1 N1            -0.0739     1.2738    -0.2873 N.pl3   
   2 C2            -0.2606     0.0144     0.1997 C.2     
   3 C3            -1.6058    -0.1748     0.3404 C.2     
   4 C4            -2.2487     0.9996    -0.0718 C.2     
   5 N5            -1.3339     1.8658    -0.4414 N.2     
   6 N6            -3.6321     1.2151    -0.0826 N.pl3   
   7 C7            -4.1402     2.4751    -0.4075 C.ar    
   8 C8            -5.4133     2.5933    -0.9496 C.ar    
   9 C9            -5.9132     3.8428    -1.2696 C.ar    
  10 C10           -5.1447     4.9739    -1.0499 C.ar    
  11 C11           -3.3749     3.6133    -0.1835 C.ar    
  12 C12            0.7996    -0.9676     0.5171 C.ar    
  13 C13            1.2158     1.8993    -0.5897 C.3     
  14 C14            0.5471    -2.0031     1.4169 C.ar    
  15 C15            1.5378    -2.9163     1.7122 C.ar    
  16 C16            2.7874    -2.8096     1.1171 C.ar    
  17 C17            3.0445    -1.7803     0.2164 C.ar    
  18 C18            2.0528    -0.8638    -0.0870 C.ar    
  19 C19           -3.8768     4.8574    -0.5106 C.ar    
  20 C20            1.5138     1.7569    -2.0836 C.3     
  21 C21            2.8437     2.3945    -2.3936 C.2     
  22 O22            3.7525    -3.7176     1.4291 O.3     
  23 C23            4.8680    -3.8042     0.5360 C.3     
  24 C24            5.3457    -2.3796     0.2236 C.3     
  25 O25            4.2620    -1.6663    -0.3818 O.3     
  26 F26           -7.1515     3.9598    -1.7971 F       
  27 N27            3.3153     2.3898    -3.6561 N.am    
  28 O28            3.4895     2.9118    -1.5069 O.2     
  29 C29            4.6081     3.0096    -3.9574 C.3     
  30 C30            2.5352     1.7650    -4.7272 C.3     
  31 H31           -2.0879    -1.0702     0.7042 H       
  32 H32           -4.2377     0.4895     0.1356 H       
  33 H33           -6.0119     1.7110    -1.1214 H       
  34 H34           -5.5363     5.9486    -1.3007 H       
  35 H35           -2.3863     3.5244     0.2422 H       
  36 H36            1.1778     2.9562    -0.3259 H       
  37 H37            2.0012     1.4092    -0.0143 H       
  38 H38           -0.4236    -2.0895     1.8824 H       
  39 H39            1.3406    -3.7173     2.4092 H       
  40 H40            2.2516    -0.0636    -0.7846 H       
  41 H41           -3.2798     5.7413    -0.3408 H       
  42 H42            1.5471     0.7001    -2.3484 H       
  43 H43            0.7310     2.2512    -2.6590 H       
  44 H44            5.6736    -4.3668     1.0077 H       
  45 H45            4.5633    -4.3000    -0.3856 H       
  46 H46            5.6440    -1.8814     1.1460 H       
  47 H47            6.1905    -2.4177    -0.4641 H       
  48 H48            5.3999     2.2678    -3.8528 H       
  49 H49            4.5994     3.3902    -4.9788 H       
  50 H50            4.7870     3.8320    -3.2648 H       
  51 H51            1.6105     1.3610    -4.3150 H       
  52 H52            2.2993     2.5100    -5.4870 H       
  53 H53            3.1153     0.9589    -5.1764 H       
@<TRIPOS>BOND
   1    1    2 1
   2    1   13 1
   3    1    5 1
   4    2    3 2
   5    2   12 1
   6    3    4 1
   7    3   31 1
   8    4    5 2
   9    4    6 1
  10    6    7 1
  11    6   32 1
  12    7    8 ar
  13    7   11 ar
  14    8    9 ar
  15    8   33 1
  16    9   10 ar
  17    9   26 1
  18   10   19 ar
  19   10   34 1
  20   11   19 ar
  21   11   35 1
  22   12   14 ar
  23   12   18 ar
  24   13   20 1
  25   13   36 1
  26   13   37 1
  27   14   15 ar
  28   14   38 1
  29   15   16 ar
  30   15   39 1
  31   16   17 ar
  32   16   22 1
  33   17   18 ar
  34   17   25 1
  35   18   40 1
  36   19   41 1
  37   20   21 1
  38   20   42 1
  39   20   43 1
  40   21   27 am
  41   21   28 2
  42   22   23 1
  43   23   24 1
  44   23   44 1
  45   23   45 1
  46   24   25 1
  47   24   46 1
  48   24   47 1
  49   27   29 1
  50   27   30 1
  51   29   48 1
  52   29   49 1
  53   29   50 1
  54   30   51 1
  55   30   52 1
  56   30   53 1

#	End of record

