#	Name: ASD02038562
#	Creating user name:	WinNT
#	Creation time:	15. 06. 2019 20:17

#	Modifying user name:	WinNT
#	Modification time:	15. 06. 2019 20:17

#	Program:	/corina/corina34_cracker 3.40 0067  02.08.2006

@<TRIPOS>MOLECULE
ASD02038562
  59   61    0    0    0
SMALL
NO_CHARGES


@<TRIPOS>ATOM
   1 C1            -0.4743     1.3564     0.9869 C.3     
   2 N2            -0.3356    -0.1030     1.0903 N.3     
   3 C3             0.0298    -0.6903    -0.2056 C.3     
   4 C4             0.6418    -0.4641     2.1266 C.3     
   5 C5             0.1842     0.0989     3.4742 C.3     
   6 N6             0.0455     1.5583     3.3707 N.3     
   7 C7            -0.3021     2.1169     4.6036 C.ar    
   8 C8            -0.4819     3.4893     4.7197 C.ar    
   9 C9            -0.8254     4.0387     5.9393 C.ar    
  10 C10           -0.9905     3.2233     7.0451 C.ar    
  11 C11           -0.8116     1.8557     6.9324 C.ar    
  12 C12           -0.4741     1.3002     5.7138 C.ar    
  13 C13           -0.9319     1.9194     2.3345 C.3     
  14 Cl14          -1.4223     3.9173     8.5766 Cl      
  15 C15           -1.1488    -0.5644    -1.1731 C.3     
  16 C16           -0.7329    -1.0780    -2.5530 C.3     
  17 O17           -1.7934    -0.8536    -3.4842 O.3     
  18 C18           -1.5843    -1.2553    -4.7664 C.ar    
  19 C19           -2.5725    -1.0675    -5.7216 C.ar    
  20 C20           -2.3608    -1.4753    -7.0239 C.ar    
  21 C21           -1.1585    -2.0728    -7.3772 C.ar    
  22 C22           -0.1697    -2.2601    -6.4208 C.ar    
  23 C23           -0.3808    -1.8475    -5.1199 C.ar    
  24 N24           -0.9432    -2.4873    -8.6986 N.am    
  25 C25           -1.4467    -1.7678    -9.7210 C.2     
  26 O26           -2.2478    -1.3383    -0.6881 O.3     
  27 O27           -2.1525    -0.8036    -9.4963 O.2     
  28 N28           -1.1679    -2.1172   -10.9925 N.am    
  29 C29            0.8744     1.9716     0.6081 C.3     
  30 C30            0.7479    -1.9876     2.2194 C.3     
  31 H31           -1.2121     1.5982     0.2219 H       
  32 H32            0.8923    -0.1629    -0.6132 H       
  33 H33            0.2781    -1.7429    -0.0704 H       
  34 H34            1.6153    -0.0465     1.8696 H       
  35 H35           -0.7766    -0.3394     3.7441 H       
  36 H36            0.9223    -0.1430     4.2389 H       
  37 H37           -0.3528     4.1262     3.8571 H       
  38 H38           -0.9650     5.1058     6.0302 H       
  39 H39           -0.9404     1.2217     7.7972 H       
  40 H40           -0.3350     0.2328     5.6264 H       
  41 H41           -1.0075     3.0048     2.2683 H       
  42 H42           -1.9054     1.5018     2.5914 H       
  43 H43           -1.4463     0.4814    -1.2492 H       
  44 H44            0.1598    -0.5476    -2.8843 H       
  45 H45           -0.5206    -2.1455    -2.4945 H       
  46 H46           -3.5078    -0.6026    -5.4467 H       
  47 H47           -3.1306    -1.3296    -7.7673 H       
  48 H48            0.7657    -2.7253    -6.6948 H       
  49 H49            0.3884    -1.9931    -4.3758 H       
  50 H50           -0.4319    -3.2919    -8.8773 H       
  51 H51           -2.0334    -2.2670    -0.5252 H       
  52 H52           -0.6048    -2.8864   -11.1717 H       
  53 H53           -1.5302    -1.5994   -11.7283 H       
  54 H54            1.2009     1.5690    -0.3507 H       
  55 H55            0.7712     3.0540     0.5314 H       
  56 H56            1.6117     1.7302     1.3736 H       
  57 H57            1.1931    -2.3773     1.3040 H       
  58 H58            1.3729    -2.2571     3.0708 H       
  59 H59           -0.2468    -2.4139     2.3497 H       
@<TRIPOS>BOND
   1    1    2 1
   2    1   29 1
   3    1   13 1
   4    1   31 1
   5    2    3 1
   6    2    4 1
   7    3   15 1
   8    3   32 1
   9    3   33 1
  10    4    5 1
  11    4   30 1
  12    4   34 1
  13    5    6 1
  14    5   35 1
  15    5   36 1
  16    6    7 1
  17    6   13 1
  18    7    8 ar
  19    7   12 ar
  20    8    9 ar
  21    8   37 1
  22    9   10 ar
  23    9   38 1
  24   10   11 ar
  25   10   14 1
  26   11   12 ar
  27   11   39 1
  28   12   40 1
  29   13   41 1
  30   13   42 1
  31   15   16 1
  32   15   26 1
  33   15   43 1
  34   16   17 1
  35   16   44 1
  36   16   45 1
  37   17   18 1
  38   18   19 ar
  39   18   23 ar
  40   19   20 ar
  41   19   46 1
  42   20   21 ar
  43   20   47 1
  44   21   22 ar
  45   21   24 1
  46   22   23 ar
  47   22   48 1
  48   23   49 1
  49   24   25 am
  50   24   50 1
  51   25   27 2
  52   25   28 am
  53   26   51 1
  54   28   52 1
  55   28   53 1
  56   29   54 1
  57   29   55 1
  58   29   56 1
  59   30   57 1
  60   30   58 1
  61   30   59 1

#	End of record

