#	Name: ASD02408383
#	Creating user name:	WinNT
#	Creation time:	15. 06. 2019 20:21

#	Modifying user name:	WinNT
#	Modification time:	15. 06. 2019 20:21

#	Program:	/corina/corina34_cracker 3.40 0067  02.08.2006

@<TRIPOS>MOLECULE
ASD02408383
  25   26    0    0    0
SMALL
NO_CHARGES


@<TRIPOS>ATOM
   1 C1            -0.0013     1.1782     0.5312 C.2     
   2 C2            -0.0152     0.2796    -0.5610 C.2     
   3 C3             1.3340     1.4334     0.8318 C.2     
   4 N4             2.0810     0.7199    -0.0409 N.pl3   
   5 N5             1.2189     0.0168    -0.8893 N.2     
   6 C6             3.4812     0.6898    -0.0875 C.ar    
   7 C7             4.1989     1.8725    -0.2036 C.ar    
   8 C8             5.5791     1.8396    -0.2493 C.ar    
   9 C9             6.2458     0.6304    -0.1795 C.ar    
  10 C10            5.5337    -0.5495    -0.0638 C.ar    
  11 C11            4.1540    -0.5227    -0.0118 C.ar    
  12 N12            1.8067     2.2604     1.8326 N.pl3   
  13 C13            3.3788    -1.8089     0.1143 C.3     
  14 F14            4.2688    -2.8873     0.1598 F       
  15 F15            2.6185    -1.7819     1.2883 F       
  16 F16            2.5294    -1.9514    -0.9882 F       
  17 C17           -1.1441     1.7266     1.1975 C.1     
  18 N18           -2.0507     2.1615     1.7261 N.1     
  19 H19           -0.8965    -0.1205    -1.0402 H       
  20 H20            3.6786     2.8173    -0.2585 H       
  21 H21            6.1379     2.7593    -0.3400 H       
  22 H22            7.3250     0.6072    -0.2158 H       
  23 H23            6.0573    -1.4926    -0.0099 H       
  24 H24            1.1870     2.7951     2.3530 H       
  25 H25            2.7584     2.3062     2.0147 H       
@<TRIPOS>BOND
   1    1    2 1
   2    1    3 2
   3    1   17 1
   4    2    5 2
   5    2   19 1
   6    3    4 1
   7    3   12 1
   8    4    5 1
   9    4    6 1
  10    6    7 ar
  11    6   11 ar
  12    7    8 ar
  13    7   20 1
  14    8    9 ar
  15    8   21 1
  16    9   10 ar
  17    9   22 1
  18   10   11 ar
  19   10   23 1
  20   11   13 1
  21   12   24 1
  22   12   25 1
  23   13   14 1
  24   13   15 1
  25   13   16 1
  26   17   18 3

#	End of record

