#	Name: ASD01410917
#	Creating user name:	WinNT
#	Creation time:	15. 06. 2019 19:18

#	Modifying user name:	WinNT
#	Modification time:	15. 06. 2019 19:18

#	Program:	/corina/corina34_cracker 3.40 0067  02.08.2006

@<TRIPOS>MOLECULE
ASD01410917
  73   74    0    0    0
SMALL
NO_CHARGES


@<TRIPOS>ATOM
   1 S1            -1.6186     0.6877    -0.3599 S.3     
   2 C2            -0.0845    -0.0004     0.1540 C.2     
   3 C3            -0.0018    -1.3085    -0.2628 C.2     
   4 C4            -1.0999    -1.7536    -0.9585 C.2     
   5 C5            -2.0881    -0.8261    -1.1202 C.2     
   6 C6            -3.3242    -1.0528    -1.8068 C.1     
   7 C7            -4.3375    -1.2386    -2.3697 C.1     
   8 C8            -5.6081    -1.4716    -3.0755 C.3     
   9 C9            -5.6456    -2.9095    -3.5969 C.3     
  10 C10           -6.7752    -1.2479    -2.1119 C.3     
  11 C11            0.9126     0.6866     0.8840 C.2     
  12 N12            1.1058    -2.1164    -0.0015 N.am    
  13 O13            0.7763     2.0058     1.1362 O.3     
  14 O14            1.8940     0.0885     1.2852 O.2     
  15 C15            1.2503    -2.7606     1.3063 C.3     
  16 C16            2.0424    -2.3040    -0.9523 C.2     
  17 C17            1.9571    -1.5485    -2.2534 C.3     
  18 O18            2.9538    -3.0809    -0.7608 O.2     
  19 C19            0.4704    -4.0500     1.3202 C.2     
  20 C20            2.4165    -2.4525    -3.3992 C.3     
  21 C21            2.3299    -1.6854    -4.7202 C.3     
  22 C22            3.2304    -0.4503    -4.6526 C.3     
  23 C23            2.7711     0.4537    -3.5069 C.3     
  24 C24            2.8576    -0.3134    -2.1859 C.3     
  25 C25            3.1439     0.3168    -5.9736 C.3     
  26 N26            0.3728    -4.7664     2.4576 N.am    
  27 O27           -0.0696    -4.4430     0.3078 O.2     
  28 C28           -5.7240    -0.4995    -4.2513 C.3     
  29 C29            1.0250    -4.2916     3.6805 C.3     
  30 C30            0.5452    -7.1826     2.1207 C.3     
  31 C31           -0.3854    -6.0198     2.4710 C.3     
  32 N32           -0.2151    -8.4395     2.1342 N.3     
  33 C33           -1.2184    -8.4593     1.0614 C.3     
  34 C34            0.6821    -9.5986     2.0373 C.3     
  35 H35           -1.1750    -2.7584    -1.3472 H       
  36 H36           -5.5630    -3.6020    -2.7593 H       
  37 H37           -6.5864    -3.0820    -4.1196 H       
  38 H38           -4.8141    -3.0688    -4.2835 H       
  39 H39           -6.7485    -0.2235    -1.7404 H       
  40 H40           -7.7161    -1.4204    -2.6345 H       
  41 H41           -6.6926    -1.9404    -1.2742 H       
  42 H42            1.5074     2.3873     1.6411 H       
  43 H43            2.3034    -2.9709     1.4933 H       
  44 H44            0.8690    -2.0969     2.0823 H       
  45 H45            0.9268    -1.2379    -2.4264 H       
  46 H46            3.4469    -2.7631    -3.2262 H       
  47 H47            1.7750    -3.3324    -3.4473 H       
  48 H48            2.6572    -2.3294    -5.5364 H       
  49 H49            1.2995    -1.3748    -4.8931 H       
  50 H50            4.2608    -0.7609    -4.4797 H       
  51 H51            3.4126     1.3336    -3.4588 H       
  52 H52            1.7407     0.7643    -3.6799 H       
  53 H53            2.5304     0.3307    -1.3697 H       
  54 H54            3.8880    -0.6239    -2.0129 H       
  55 H55            2.1135     0.6274    -6.1466 H       
  56 H56            3.7854     1.1967    -5.9255 H       
  57 H57            3.4711    -0.3272    -6.7899 H       
  58 H58           -4.8925    -0.6589    -4.9378 H       
  59 H59           -6.6649    -0.6720    -4.7739 H       
  60 H60           -5.6973     0.5249    -3.8798 H       
  61 H61            0.3357    -3.6563     4.2367 H       
  62 H62            1.3091    -5.1454     4.2957 H       
  63 H63            1.9154    -3.7199     3.4189 H       
  64 H64            0.9672    -7.0239     1.1283 H       
  65 H65            1.3503    -7.2371     2.8534 H       
  66 H66           -0.8074    -6.1785     3.4634 H       
  67 H67           -1.1905    -5.9653     1.7383 H       
  68 H68           -0.7207    -8.3623     0.0965 H       
  69 H69           -1.7669    -9.4007     1.0942 H       
  70 H70           -1.9122    -7.6297     1.1973 H       
  71 H71            1.3701    -9.5971     2.8828 H       
  72 H72            0.0934   -10.5158     2.0495 H       
  73 H73            1.2487    -9.5428     1.1078 H       
@<TRIPOS>BOND
   1    1    2 1
   2    1    5 1
   3    2    3 2
   4    2   11 1
   5    3    4 1
   6    3   12 1
   7    4    5 2
   8    4   35 1
   9    5    6 1
  10    6    7 3
  11    7    8 1
  12    8    9 1
  13    8   10 1
  14    8   28 1
  15    9   36 1
  16    9   37 1
  17    9   38 1
  18   10   39 1
  19   10   40 1
  20   10   41 1
  21   11   13 1
  22   11   14 2
  23   12   15 1
  24   12   16 am
  25   13   42 1
  26   15   19 1
  27   15   43 1
  28   15   44 1
  29   16   18 2
  30   16   17 1
  31   17   20 1
  32   17   24 1
  33   17   45 1
  34   19   26 am
  35   19   27 2
  36   20   21 1
  37   20   46 1
  38   20   47 1
  39   21   22 1
  40   21   48 1
  41   21   49 1
  42   22   23 1
  43   22   25 1
  44   22   50 1
  45   23   24 1
  46   23   51 1
  47   23   52 1
  48   24   53 1
  49   24   54 1
  50   25   55 1
  51   25   56 1
  52   25   57 1
  53   26   29 1
  54   26   31 1
  55   28   58 1
  56   28   59 1
  57   28   60 1
  58   29   61 1
  59   29   62 1
  60   29   63 1
  61   30   31 1
  62   30   32 1
  63   30   64 1
  64   30   65 1
  65   31   66 1
  66   31   67 1
  67   32   33 1
  68   32   34 1
  69   33   68 1
  70   33   69 1
  71   33   70 1
  72   34   71 1
  73   34   72 1
  74   34   73 1

#	End of record

