#	Name: ASD03330557
#	Creating user name:	WinNT
#	Creation time:	15. 06. 2019 20:37

#	Modifying user name:	WinNT
#	Modification time:	15. 06. 2019 20:37

#	Program:	/corina/corina34_cracker 3.40 0067  02.08.2006

@<TRIPOS>MOLECULE
ASD03330557
  60   62    0    0    0
SMALL
NO_CHARGES


@<TRIPOS>ATOM
   1 C1            -0.3230     1.1657     0.8562 C.2     
   2 N2            -0.3518    -0.1674     1.0901 N.pl3   
   3 C3             0.9823     1.5535     0.8992 C.2     
   4 N4             1.7302     0.4548     1.1402 N.2     
   5 C5             0.9371    -0.5849     1.2505 C.2     
   6 C6             1.3685    -1.9768     1.5069 C.ar    
   7 C7             1.4876     2.9255     0.7158 C.2     
   8 O8             0.7104     3.8365     0.5032 O.2     
   9 C9             3.3135     4.5349     0.6014 C.3     
  10 N10            2.8111     3.1709     0.7837 N.am    
  11 C11            3.4862     4.8195    -0.8920 C.3     
  12 C12            2.1176     4.8030    -1.5758 C.3     
  13 C13            4.1327     6.1937    -1.0779 C.3     
  14 C14            4.3808     3.7464    -1.5155 C.3     
  15 C15            4.6427     4.6778     1.2970 C.2     
  16 N16            5.1782     5.9007     1.4824 N.am    
  17 O17            5.2306     3.6925     1.6898 O.2     
  18 C18            6.5029     6.0353     2.0934 C.3     
  19 C19           -1.5615    -0.9911     1.1674 C.3     
  20 C20           -2.4706    -0.6625    -0.0208 C.3     
  21 C21           -3.3824     0.5071     0.3361 C.3     
  22 N22           -2.7033     1.4495     1.2279 N.3     
  23 C23           -1.5207     2.0380     0.5820 C.3     
  24 C24           -3.6259     2.4952     1.6899 C.3     
  25 C25            2.6204    -2.4126     1.0738 C.ar    
  26 C26            3.0173    -3.7143     1.3166 C.ar    
  27 C27            2.1734    -4.5838     1.9884 C.ar    
  28 C28            0.9307    -4.1554     2.4191 C.ar    
  29 C29            0.5265    -2.8567     2.1880 C.ar    
  30 F30            4.2294    -4.1392     0.8977 F       
  31 H31            2.6029     5.2437     1.0266 H       
  32 H32            3.4310     2.4444     0.9533 H       
  33 H33            1.4802     5.5676    -1.1316 H       
  34 H34            2.2406     5.0058    -2.6397 H       
  35 H35            1.6570     3.8240    -1.4434 H       
  36 H36            5.0921     6.2168    -0.5610 H       
  37 H37            4.2878     6.3815    -2.1403 H       
  38 H38            3.4788     6.9617    -0.6648 H       
  39 H39            3.9202     2.7674    -1.3831 H       
  40 H40            4.5038     3.9491    -2.5794 H       
  41 H41            5.3558     3.7581    -1.0283 H       
  42 H42            4.6865     6.6917     1.2114 H       
  43 H43            6.7664     7.0908     2.1608 H       
  44 H44            6.4881     5.5999     3.0926 H       
  45 H45            7.2398     5.5152     1.4814 H       
  46 H46           -1.2869    -2.0455     1.1353 H       
  47 H47           -2.0877    -0.7790     2.0981 H       
  48 H48           -1.8588    -0.3954    -0.8824 H       
  49 H49           -3.0778    -1.5343    -0.2647 H       
  50 H50           -3.6739     1.0255    -0.5774 H       
  51 H51           -4.2758     0.1264     0.8311 H       
  52 H52           -1.3446     3.0357     0.9842 H       
  53 H53           -1.6867     2.1016    -0.4934 H       
  54 H54           -4.4534     2.0364     2.2310 H       
  55 H55           -3.0958     3.1814     2.3504 H       
  56 H56           -4.0129     3.0436     0.8311 H       
  57 H57            3.2781    -1.7349     0.5498 H       
  58 H58            2.4870    -5.6001     2.1762 H       
  59 H59            0.2771    -4.8380     2.9420 H       
  60 H60           -0.4441    -2.5243     2.5255 H       
@<TRIPOS>BOND
   1    1    2 1
   2    1    3 2
   3    1   23 1
   4    2   19 1
   5    2    5 1
   6    3    4 1
   7    3    7 1
   8    4    5 2
   9    5    6 1
  10    6   25 ar
  11    6   29 ar
  12    7    8 2
  13    7   10 am
  14    9   10 1
  15    9   11 1
  16    9   15 1
  17    9   31 1
  18   10   32 1
  19   11   12 1
  20   11   13 1
  21   11   14 1
  22   12   33 1
  23   12   34 1
  24   12   35 1
  25   13   36 1
  26   13   37 1
  27   13   38 1
  28   14   39 1
  29   14   40 1
  30   14   41 1
  31   15   16 am
  32   15   17 2
  33   16   18 1
  34   16   42 1
  35   18   43 1
  36   18   44 1
  37   18   45 1
  38   19   20 1
  39   19   46 1
  40   19   47 1
  41   20   21 1
  42   20   48 1
  43   20   49 1
  44   21   22 1
  45   21   50 1
  46   21   51 1
  47   22   23 1
  48   22   24 1
  49   23   52 1
  50   23   53 1
  51   24   54 1
  52   24   55 1
  53   24   56 1
  54   25   26 ar
  55   25   57 1
  56   26   27 ar
  57   26   30 1
  58   27   28 ar
  59   27   58 1
  60   28   29 ar
  61   28   59 1
  62   29   60 1

#	End of record

