#	Name: ASD01478053
#	Creating user name:	WinNT
#	Creation time:	15. 06. 2019 19:21

#	Modifying user name:	WinNT
#	Modification time:	15. 06. 2019 19:21

#	Program:	/corina/corina34_cracker 3.40 0067  02.08.2006

@<TRIPOS>MOLECULE
ASD01478053
  31   32    0    0    0
SMALL
NO_CHARGES


@<TRIPOS>ATOM
   1 C1            -0.0189     1.5411     0.0105 C.3     
   2 C2             0.0021    -0.0041     0.0020 C.3     
   3 O3             0.3762    -0.4782    -1.2272 O.3     
   4 C4             1.6807    -0.1288    -1.7089 C.3     
   5 O5             1.5980     1.1543    -2.2862 O.3     
   6 C6             1.9519     2.2441    -1.4245 C.3     
   7 C7             1.3997     2.0638    -0.0002 C.3     
   8 O8            -0.6876     2.0021     1.1863 O.3     
   9 C9            -2.0963     2.1777     1.0227 C.3     
  10 C10           -2.6956     2.6633     2.3173 C.ar    
  11 C11           -2.7897     4.0192     2.5697 C.ar    
  12 C12           -3.3394     4.4647     3.7572 C.ar    
  13 C13           -3.7956     3.5543     4.6921 C.ar    
  14 C14           -3.7024     2.1985     4.4393 C.ar    
  15 C15           -3.1566     1.7531     3.2499 C.ar    
  16 H16           -0.5459     1.9023    -0.8726 H       
  17 H17            0.7086    -0.3574     0.7531 H       
  18 H18           -0.9932    -0.3777     0.2429 H       
  19 H19            2.3888    -0.1157    -0.8803 H       
  20 H20            2.0027    -0.8509    -2.4591 H       
  21 H21            3.0383     2.3179    -1.3758 H       
  22 H22            1.5549     3.1689    -1.8431 H       
  23 H23            1.4247     3.0257     0.5118 H       
  24 H24            2.0375     1.3632     0.5388 H       
  25 H25           -2.2823     2.9114     0.2384 H       
  26 H26           -2.5512     1.2266     0.7459 H       
  27 H27           -2.4333     4.7304     1.8392 H       
  28 H28           -3.4122     5.5240     3.9547 H       
  29 H29           -4.2244     3.9024     5.6202 H       
  30 H30           -4.0585     1.4873     5.1699 H       
  31 H31           -3.0872     0.6939     3.0508 H       
@<TRIPOS>BOND
   1    1    2 1
   2    1    7 1
   3    1    8 1
   4    1   16 1
   5    2    3 1
   6    2   17 1
   7    2   18 1
   8    3    4 1
   9    4    5 1
  10    4   19 1
  11    4   20 1
  12    5    6 1
  13    6    7 1
  14    6   21 1
  15    6   22 1
  16    7   23 1
  17    7   24 1
  18    8    9 1
  19    9   10 1
  20    9   25 1
  21    9   26 1
  22   10   11 ar
  23   10   15 ar
  24   11   12 ar
  25   11   27 1
  26   12   13 ar
  27   12   28 1
  28   13   14 ar
  29   13   29 1
  30   14   15 ar
  31   14   30 1
  32   15   31 1

#	End of record

