#	Name: ASD05313206
#	Creating user name:	WinNT
#	Creation time:	15. 06. 2019 20:58

#	Modifying user name:	WinNT
#	Modification time:	15. 06. 2019 20:58

#	Program:	/corina/corina34_cracker 3.40 0067  02.08.2006

@<TRIPOS>MOLECULE
ASD05313206
  34   37    0    0    0
SMALL
NO_CHARGES


@<TRIPOS>ATOM
   1 C1            -0.0723     0.8186     1.0228 C.2     
   2 C2             0.1135    -0.6180     0.5958 C.3     
   3 N3             0.9303     1.7315     1.0490 N.pl3   
   4 N4             1.4568    -0.7179    -0.0056 N.am    
   5 C5             2.5711    -0.0364     0.6704 C.3     
   6 C6             2.3169     1.4758     0.6631 C.3     
   7 N7            -0.9057     2.6419     1.7066 N.2     
   8 N8            -1.1578     1.4098     1.4250 N.2     
   9 C9             0.3716     2.8925     1.4935 C.2     
  10 S10            2.7274     4.5305     1.4312 S.3     
  11 N11            2.6008     6.1560     1.9110 N.2     
  12 C12            1.3503     6.3333     2.2350 C.2     
  13 N13            0.5392     5.3121     2.1291 N.2     
  14 C14            1.0620     4.1788     1.6992 C.2     
  15 C15            1.6573    -1.4143    -1.1420 C.2     
  16 O16            2.7492    -1.4041    -1.6765 O.2     
  17 C17            0.5504    -2.1898    -1.7380 C.ar    
  18 C18            0.3190    -2.1377    -3.1154 C.ar    
  19 C19           -0.7174    -2.8651    -3.6656 C.ar    
  20 C20           -1.5258    -3.6445    -2.8556 C.ar    
  21 C21           -1.3008    -3.6998    -1.4898 C.ar    
  22 C22           -0.2656    -2.9826    -0.9286 C.ar    
  23 Cl23          -2.8274    -4.5560    -3.5546 Cl      
  24 Cl24           1.3317    -1.1603    -4.1317 Cl      
  25 H25            0.0441    -1.2756     1.4623 H       
  26 H26           -0.6443    -0.8885    -0.1395 H       
  27 H27            2.6428    -0.3886     1.6994 H       
  28 H28            3.5018    -0.2516     0.1454 H       
  29 H29            2.4953     1.8704    -0.3372 H       
  30 H30            2.9877     1.9613     1.3720 H       
  31 H31            0.9951     7.2930     2.5802 H       
  32 H32           -0.8980    -2.8258    -4.7297 H       
  33 H33           -1.9351    -4.3097    -0.8637 H       
  34 H34           -0.0887    -3.0308     0.1358 H       
@<TRIPOS>BOND
   1    1    2 1
   2    1    3 1
   3    1    8 2
   4    2    4 1
   5    2   25 1
   6    2   26 1
   7    3    6 1
   8    3    9 1
   9    4    5 1
  10    4   15 am
  11    5    6 1
  12    5   27 1
  13    5   28 1
  14    6   29 1
  15    6   30 1
  16    7    8 1
  17    7    9 2
  18    9   14 1
  19   10   11 1
  20   10   14 1
  21   11   12 2
  22   12   13 1
  23   12   31 1
  24   13   14 2
  25   15   16 2
  26   15   17 1
  27   17   18 ar
  28   17   22 ar
  29   18   19 ar
  30   18   24 1
  31   19   20 ar
  32   19   32 1
  33   20   21 ar
  34   20   23 1
  35   21   22 ar
  36   21   33 1
  37   22   34 1

#	End of record

