#	Name: ASD01890276
#	Creating user name:	WinNT
#	Creation time:	15. 06. 2019 19:50

#	Modifying user name:	WinNT
#	Modification time:	15. 06. 2019 19:50

#	Program:	/corina/corina34_cracker 3.40 0067  02.08.2006

@<TRIPOS>MOLECULE
ASD01890276
  36   38    0    0    0
SMALL
NO_CHARGES


@<TRIPOS>ATOM
   1 C1            -0.0184     1.5028     0.0103 C.2     
   2 C2             0.0021    -0.0041     0.0020 C.3     
   3 C3             1.4513    -0.4944    -0.0145 C.3     
   4 O4             1.0234     2.1233     0.0037 O.2     
   5 C5            -1.3027     2.2212     0.0203 C.ar    
   6 C6            -1.3259     3.6195     0.0280 C.ar    
   7 C7            -2.5333     4.2853     0.0374 C.ar    
   8 C8            -3.7202     3.5735     0.0397 C.ar    
   9 C9            -3.7057     2.1896     0.0321 C.ar    
  10 C10           -2.5064     1.5092     0.0164 C.ar    
  11 C11            1.4695    -2.6652    -1.2111 C.ar    
  12 C12            1.4717    -2.0012    -0.0227 C.ar    
  13 C13            1.4931    -2.6939     1.1860 C.ar    
  14 C14            1.5119    -4.0547     1.2138 C.ar    
  15 C15            1.5099    -4.7747     0.0073 C.ar    
  16 C16            1.5295    -6.1800    -0.0042 C.ar    
  17 C17            1.5272    -6.8437    -1.1922 C.ar    
  18 C18            1.5061    -6.1508    -2.4014 C.ar    
  19 C19            1.4873    -4.7904    -2.4293 C.ar    
  20 C20            1.4881    -4.0701    -1.2224 C.ar    
  21 H21           -0.4983    -0.3791     0.8948 H       
  22 H22           -0.5153    -0.3696    -0.8850 H       
  23 H23            1.9516    -0.1193    -0.9073 H       
  24 H24            1.9686    -0.1289     0.8726 H       
  25 H25           -0.4005     4.1764     0.0270 H       
  26 H26           -2.5529     5.3652     0.0434 H       
  27 H27           -4.6628     4.1007     0.0478 H       
  28 H28           -4.6360     1.6411     0.0339 H       
  29 H29           -2.4967     0.4293     0.0055 H       
  30 H30            1.4487    -2.1151    -2.1402 H       
  31 H31            1.4951    -2.1428     2.1149 H       
  32 H32            1.5287    -4.5782     2.1583 H       
  33 H33            1.5466    -6.7303     0.9250 H       
  34 H34            1.5423    -7.9236    -1.1982 H       
  35 H35            1.5051    -6.7019    -3.3302 H       
  36 H36            1.4718    -4.2669    -3.3738 H       
@<TRIPOS>BOND
   1    1    2 1
   2    1    4 2
   3    1    5 1
   4    2    3 1
   5    2   21 1
   6    2   22 1
   7    3   12 1
   8    3   23 1
   9    3   24 1
  10    5    6 ar
  11    5   10 ar
  12    6    7 ar
  13    6   25 1
  14    7    8 ar
  15    7   26 1
  16    8    9 ar
  17    8   27 1
  18    9   10 ar
  19    9   28 1
  20   10   29 1
  21   11   12 ar
  22   11   20 ar
  23   11   30 1
  24   12   13 ar
  25   13   14 ar
  26   13   31 1
  27   14   15 ar
  28   14   32 1
  29   15   16 ar
  30   15   20 ar
  31   16   17 ar
  32   16   33 1
  33   17   18 ar
  34   17   34 1
  35   18   19 ar
  36   18   35 1
  37   19   20 ar
  38   19   36 1

#	End of record

