#	Name: ASD01916094
#	Creating user name:	WinNT
#	Creation time:	15. 06. 2019 20:06

#	Modifying user name:	WinNT
#	Modification time:	15. 06. 2019 20:06

#	Program:	/corina/corina34_cracker 3.40 0067  02.08.2006

@<TRIPOS>MOLECULE
ASD01916094
  40   42    0    0    0
SMALL
NO_CHARGES


@<TRIPOS>ATOM
   1 C1            -0.4097     1.7395     0.1050 C.ar    
   2 C2            -0.5420     0.3893     0.3738 C.ar    
   3 N3             0.5012    -0.3404     0.7076 N.ar    
   4 C4             1.7190     0.1814     0.8005 C.ar    
   5 C5             1.9321     1.5322     0.5448 C.ar    
   6 C6             0.8481     2.3308     0.1897 C.ar    
   7 C7            -1.9010    -0.2559     0.2836 C.3     
   8 O8             1.0136     3.6531    -0.0684 O.3     
   9 C9             2.2653     4.1719     0.0367 C.ar    
  10 C10            3.1953     3.9756    -0.9740 C.ar    
  11 N11            4.4107     4.4770    -0.8772 N.ar    
  12 C12            4.7911     5.1788     0.1720 C.ar    
  13 C13            3.9202     5.4169     1.2208 C.ar    
  14 C14            2.6305     4.9123     1.1567 C.ar    
  15 C15            2.8607    -0.6827     1.1805 C.2     
  16 N16            2.6611    -1.9920     1.4300 N.am    
  17 O17            3.9772    -0.2110     1.2671 O.2     
  18 C18            3.7475    -2.8263     1.6840 C.ar    
  19 C19            3.5469    -4.1946     1.8253 C.ar    
  20 C20            4.6349    -5.0120     2.0770 C.ar    
  21 C21            5.8909    -4.4300     2.1790 C.ar    
  22 C22            6.0169    -3.0629     2.0276 C.ar    
  23 N23            4.9623    -2.3093     1.7833 N.ar    
  24 Cl24           4.4342     6.3421     2.5968 Cl      
  25 C25            7.1043    -5.2807     2.4527 C.3     
  26 F26            7.6596    -5.7046     1.2407 F       
  27 F27            8.0491    -4.5311     3.1617 F       
  28 F28            6.7306    -6.3962     3.2099 F       
  29 H29           -1.2719     2.3280    -0.1720 H       
  30 H30            2.9230     1.9551     0.6211 H       
  31 H31           -2.0614    -0.6251    -0.7293 H       
  32 H32           -1.9558    -1.0873     0.9864 H       
  33 H33           -2.6686     0.4782     0.5286 H       
  34 H34            2.9207     3.4055    -1.8492 H       
  35 H35            5.7958     5.5729     0.2137 H       
  36 H36            1.9292     5.0823     1.9603 H       
  37 H37            1.7609    -2.3535     1.4327 H       
  38 H38            2.5553    -4.6141     1.7401 H       
  39 H39            4.5096    -6.0785     2.1917 H       
  40 H40            6.9921    -2.6055     2.1066 H       
@<TRIPOS>BOND
   1    1    2 ar
   2    1    6 ar
   3    1   29 1
   4    2    3 ar
   5    2    7 1
   6    3    4 ar
   7    4    5 ar
   8    4   15 1
   9    5    6 ar
  10    5   30 1
  11    6    8 1
  12    7   31 1
  13    7   32 1
  14    7   33 1
  15    8    9 1
  16    9   10 ar
  17    9   14 ar
  18   10   11 ar
  19   10   34 1
  20   11   12 ar
  21   12   13 ar
  22   12   35 1
  23   13   14 ar
  24   13   24 1
  25   14   36 1
  26   15   16 am
  27   15   17 2
  28   16   18 1
  29   16   37 1
  30   18   19 ar
  31   18   23 ar
  32   19   20 ar
  33   19   38 1
  34   20   21 ar
  35   20   39 1
  36   21   22 ar
  37   21   25 1
  38   22   23 ar
  39   22   40 1
  40   25   26 1
  41   25   27 1
  42   25   28 1

#	End of record

