#	Name: ASD02030181
#	Creating user name:	WinNT
#	Creation time:	15. 06. 2019 20:14

#	Modifying user name:	WinNT
#	Modification time:	15. 06. 2019 20:14

#	Program:	/corina/corina34_cracker 3.40 0067  02.08.2006

@<TRIPOS>MOLECULE
ASD02030181
  42   45    0    0    0
SMALL
NO_CHARGES


@<TRIPOS>ATOM
   1 C1            -0.0164     1.3608     0.0095 C.2     
   2 N2             0.0021    -0.0041     0.0020 N.am    
   3 N3             2.3515     0.0421    -0.0204 N.2     
   4 C4             2.3782     1.3696    -0.0135 C.2     
   5 C5             1.1886     2.0663     0.0018 C.2     
   6 C6            -0.8977    -2.1366    -0.0009 C.2     
   7 S7             0.8604    -2.3567    -0.0209 S.3     
   8 C8             1.2088    -0.6210    -0.0135 C.2     
   9 C9            -2.6287    -0.5790     0.0242 C.3     
  10 C10           -3.2584    -1.9144     0.4679 C.3     
  11 C11           -2.1866    -2.9275     0.0110 C.3     
  12 C12           -1.1188    -0.8310     0.0085 C.2     
  13 O13           -1.0798     1.9609     0.0178 O.2     
  14 C14            3.6930     2.1059    -0.0217 C.3     
  15 N15            4.4159     1.8285     1.2220 N.pl3   
  16 C16            5.2922     0.7413     1.2936 C.ar    
  17 C17            4.2205     2.6900     2.3907 C.3     
  18 C18            3.0692     2.1458     3.2388 C.3     
  19 C19            5.4825    -0.0727     0.1847 C.ar    
  20 C20            5.9780     0.4773     2.4721 C.ar    
  21 C21            6.8432    -0.5971     2.5406 C.ar    
  22 C22            7.0270    -1.4108     1.4354 C.ar    
  23 C23            6.3487    -1.1461     0.2577 C.ar    
  24 F24            7.8741    -2.4610     1.5045 F       
  25 H25            1.1887     3.1463     0.0074 H       
  26 H26           -2.9773    -0.3097    -0.9728 H       
  27 H27           -2.8729     0.2091     0.7365 H       
  28 H28           -3.3890    -1.9447     1.5496 H       
  29 H29           -4.2049    -2.0893    -0.0436 H       
  30 H30           -2.4147    -3.2978    -0.9885 H       
  31 H31           -2.1189    -3.7544     0.7178 H       
  32 H32            4.2902     1.7737    -0.8709 H       
  33 H33            3.5090     3.1772    -0.1037 H       
  34 H34            5.1335     2.7076     2.9858 H       
  35 H35            3.9823     3.7013     2.0608 H       
  36 H36            2.1562     2.1283     2.6436 H       
  37 H37            3.3074     1.1346     3.5686 H       
  38 H38            2.9239     2.7869     4.1083 H       
  39 H39            4.9534     0.1331    -0.7340 H       
  40 H40            5.8352     1.1120     3.3342 H       
  41 H41            7.3769    -0.8026     3.4567 H       
  42 H42            6.4967    -1.7797    -0.6044 H       
@<TRIPOS>BOND
   1    1    2 am
   2    1    5 1
   3    1   13 2
   4    2    8 1
   5    2   12 1
   6    3    4 1
   7    3    8 2
   8    4    5 2
   9    4   14 1
  10    5   25 1
  11    6    7 1
  12    6   12 2
  13    6   11 1
  14    7    8 1
  15    9   10 1
  16    9   12 1
  17    9   26 1
  18    9   27 1
  19   10   11 1
  20   10   28 1
  21   10   29 1
  22   11   30 1
  23   11   31 1
  24   14   15 1
  25   14   32 1
  26   14   33 1
  27   15   16 1
  28   15   17 1
  29   16   20 ar
  30   16   19 ar
  31   17   18 1
  32   17   34 1
  33   17   35 1
  34   18   36 1
  35   18   37 1
  36   18   38 1
  37   19   23 ar
  38   19   39 1
  39   20   21 ar
  40   20   40 1
  41   21   22 ar
  42   21   41 1
  43   22   23 ar
  44   22   24 1
  45   23   42 1

#	End of record

