#	Name: ASD01120366
#	Creating user name:	WinNT
#	Creation time:	15. 06. 2019 18:59

#	Modifying user name:	WinNT
#	Modification time:	15. 06. 2019 18:59

#	Program:	/corina/corina34_cracker 3.40 0067  02.08.2006

@<TRIPOS>MOLECULE
ASD01120366
  36   37    0    0    0
SMALL
NO_CHARGES


@<TRIPOS>ATOM
   1 C1            -0.0458     1.9103    -0.7334 C.ar    
   2 C2            -0.1775     0.5284    -0.7841 C.ar    
   3 C3             0.8970    -0.2896    -0.5146 C.ar    
   4 C4             2.1286     0.2708    -0.1883 C.ar    
   5 C5             2.2598     1.6728    -0.1380 C.ar    
   6 C6             1.1514     2.4832    -0.4159 C.ar    
   7 N7             3.3544    -0.2682     0.1229 N.pl3   
   8 C8             4.2444     0.7608     0.3655 C.2     
   9 C9             3.6029     1.9497     0.2132 C.2     
  10 C10            4.2122     3.3170     0.3869 C.3     
  11 C11            4.0935     3.7460     1.8508 C.3     
  12 C12            4.6579     5.1336     2.0150 C.2     
  13 O13            4.6597     5.7188     3.2230 O.3     
  14 O14            5.1088     5.7194     1.0592 O.2     
  15 C15            5.6579     0.5963     0.7297 C.2     
  16 O16            6.3539     1.5743     0.9219 O.2     
  17 O17            6.1835    -0.6396     0.8509 O.3     
  18 C18            1.2811     3.9837    -0.3653 C.3     
  19 C19            1.7935     4.4971    -1.7124 C.3     
  20 N20            0.7426    -1.7607    -0.5713 N.pl3   
  21 O21           -0.3361    -2.2492    -0.8566 O.2     
  22 O22            1.6941    -2.4826    -0.3326 O.2     
  23 H23           -0.8977     2.5372    -0.9516 H       
  24 H24           -1.1321     0.0912    -1.0370 H       
  25 H25            3.5606    -1.2151     0.1656 H       
  26 H26            5.2638     3.2851     0.1018 H       
  27 H27            3.6860     4.0323    -0.2451 H       
  28 H28            3.0443     3.7432     2.1463 H       
  29 H29            4.6499     3.0507     2.4794 H       
  30 H30            5.0322     6.6094     3.2788 H       
  31 H31            7.1180    -0.6975     1.0923 H       
  32 H32            0.3072     4.4256    -0.1546 H       
  33 H33            1.9837     4.2614     0.4204 H       
  34 H34            2.7161     3.9780    -1.9719 H       
  35 H35            1.0434     4.3112    -2.4812 H       
  36 H36            1.9859     5.5678    -1.6439 H       
@<TRIPOS>BOND
   1    1    2 ar
   2    1    6 ar
   3    1   23 1
   4    2    3 ar
   5    2   24 1
   6    3   20 1
   7    3    4 ar
   8    4    5 ar
   9    4    7 1
  10    5    6 ar
  11    5    9 1
  12    6   18 1
  13    7    8 1
  14    7   25 1
  15    8    9 2
  16    8   15 1
  17    9   10 1
  18   10   11 1
  19   10   26 1
  20   10   27 1
  21   11   12 1
  22   11   28 1
  23   11   29 1
  24   12   13 1
  25   12   14 2
  26   13   30 1
  27   15   16 2
  28   15   17 1
  29   17   31 1
  30   18   19 1
  31   18   32 1
  32   18   33 1
  33   19   34 1
  34   19   35 1
  35   19   36 1
  36   20   21 2
  37   20   22 2

#	End of record

