#	Name: ASD01913019
#	Creating user name:	WinNT
#	Creation time:	15. 06. 2019 20:00

#	Modifying user name:	WinNT
#	Modification time:	15. 06. 2019 20:00

#	Program:	/corina/corina34_cracker 3.40 0067  02.08.2006

@<TRIPOS>MOLECULE
ASD01913019
  56   59    0    0    0
SMALL
NO_CHARGES


@<TRIPOS>ATOM
   1 C1            -0.0184     1.5028     0.0103 C.3     
   2 C2             0.0021    -0.0041     0.0020 C.2     
   3 N3             0.0233    -0.8038     1.0899 N.pl3   
   4 C4            -0.0035    -0.7924    -1.0949 C.2     
   5 C5             0.0212    -2.1329    -0.6633 C.2     
   6 N6             0.0373    -2.1344     0.6528 N.2     
   7 C7             0.0242    -3.3319    -1.5380 C.ar    
   8 C8             0.1063    -3.1874    -2.9216 C.ar    
   9 C9            -0.0493    -4.6054    -0.9779 C.ar    
  10 C10           -0.0459    -5.7176    -1.7948 C.ar    
  11 C11            0.0306    -5.5692    -3.1699 C.ar    
  12 C12            0.1092    -4.3046    -3.7309 C.ar    
  13 C13            0.0311    -0.3571     2.4851 C.3     
  14 C14           -1.3868    -0.2226     2.9775 C.2     
  15 N15           -1.6259     0.1781     4.2419 N.am    
  16 O16           -2.3127    -0.4750     2.2360 O.2     
  17 C17           -3.0020     0.3160     4.7427 C.3     
  18 C18           -3.1185    -0.4520     6.0636 C.3     
  19 N19           -2.0725     0.0071     6.9872 N.3     
  20 C20           -0.7321    -0.2856     6.4622 C.3     
  21 C21           -0.5177     0.4833     5.1594 C.3     
  22 C22           -2.2443    -0.5457     8.2466 C.ar    
  23 C23           -1.3597    -0.2422     9.2782 C.ar    
  24 C24           -1.5752    -0.8220    10.5220 C.ar    
  25 N25           -2.6111    -1.6406    10.6828 N.ar    
  26 C26           -3.4272    -1.9041     9.6823 C.ar    
  27 N27           -3.2609    -1.3706     8.4895 N.ar    
  28 C28           -0.1248    -7.0957    -1.1900 C.3     
  29 F29            0.0337    -6.6606    -3.9661 F       
  30 O30           -0.7411    -0.5576    11.5573 O.3     
  31 C31           -1.0318    -1.1937    12.8034 C.3     
  32 H32            1.0042     1.8801     0.0026 H       
  33 H33           -0.5455     1.8639    -0.8728 H       
  34 H34           -0.5286     1.8543     0.9071 H       
  35 H35           -0.0239    -0.4548    -2.1206 H       
  36 H36            0.1672    -2.2021    -3.3597 H       
  37 H37           -0.1086    -4.7220     0.0942 H       
  38 H38            0.1682    -4.1933    -4.8036 H       
  39 H39            0.5606    -1.0872     3.0974 H       
  40 H40            0.5331     0.6079     2.5549 H       
  41 H41           -3.2268     1.3693     4.9104 H       
  42 H42           -3.6996    -0.0988     4.0151 H       
  43 H43           -4.0986    -0.2703     6.5047 H       
  44 H44           -2.9957    -1.5187     5.8762 H       
  45 H45            0.0185     0.0168     7.1923 H       
  46 H46           -0.6425    -1.3546     6.2692 H       
  47 H47            0.4274     0.1819     4.7077 H       
  48 H48           -0.5039     1.5539     5.3642 H       
  49 H49           -0.5274     0.4264     9.1153 H       
  50 H50           -4.2588    -2.5735     9.8462 H       
  51 H51           -1.1696    -7.3923    -1.0970 H       
  52 H52            0.3984    -7.8046    -1.8317 H       
  53 H53            0.3395    -7.0868    -0.2039 H       
  54 H54           -0.2895    -0.8973    13.5445 H       
  55 H55           -2.0234    -0.8933    13.1421 H       
  56 H56           -1.0044    -2.2757    12.6742 H       
@<TRIPOS>BOND
   1    1    2 1
   2    1   32 1
   3    1   33 1
   4    1   34 1
   5    2    3 1
   6    2    4 2
   7    3   13 1
   8    3    6 1
   9    4    5 1
  10    4   35 1
  11    5    6 2
  12    5    7 1
  13    7    8 ar
  14    7    9 ar
  15    8   12 ar
  16    8   36 1
  17    9   10 ar
  18    9   37 1
  19   10   11 ar
  20   10   28 1
  21   11   12 ar
  22   11   29 1
  23   12   38 1
  24   13   14 1
  25   13   39 1
  26   13   40 1
  27   14   15 am
  28   14   16 2
  29   15   17 1
  30   15   21 1
  31   17   18 1
  32   17   41 1
  33   17   42 1
  34   18   19 1
  35   18   43 1
  36   18   44 1
  37   19   20 1
  38   19   22 1
  39   20   21 1
  40   20   45 1
  41   20   46 1
  42   21   47 1
  43   21   48 1
  44   22   23 ar
  45   22   27 ar
  46   23   24 ar
  47   23   49 1
  48   24   25 ar
  49   24   30 1
  50   25   26 ar
  51   26   27 ar
  52   26   50 1
  53   28   51 1
  54   28   52 1
  55   28   53 1
  56   30   31 1
  57   31   54 1
  58   31   55 1
  59   31   56 1

#	End of record

