#	Name: ASD01911203
#	Creating user name:	WinNT
#	Creation time:	15. 06. 2019 19:57

#	Modifying user name:	WinNT
#	Modification time:	15. 06. 2019 19:57

#	Program:	/corina/corina34_cracker 3.40 0067  02.08.2006

@<TRIPOS>MOLECULE
ASD01911203
  46   49    0    0    0
SMALL
NO_CHARGES


@<TRIPOS>ATOM
   1 C1             0.0185     1.3093     0.0784 C.ar    
   2 N2             0.0202    -0.0049     0.0313 N.ar    
   3 C3             0.9818    -0.6783    -0.5887 C.ar    
   4 C4             2.0285    -0.0042    -1.2135 C.ar    
   5 C5             2.0524     1.3814    -1.1798 C.ar    
   6 C6             1.0284     2.0444    -0.5222 C.ar    
   7 C7             0.9417    -2.1587    -0.6156 C.2     
   8 N8            -0.0682    -2.8166    -0.0124 N.am    
   9 C9            -0.1520    -4.2101    -0.1092 C.ar    
  10 C10           -1.3820    -4.8427     0.0125 C.ar    
  11 C11           -1.4625    -6.2183    -0.0832 C.ar    
  12 C12           -0.3177    -6.9663    -0.3000 C.ar    
  13 C13            0.9103    -6.3373    -0.4212 C.ar    
  14 C14            0.9943    -4.9619    -0.3327 C.ar    
  15 C15           -2.6282    -4.0291     0.2494 C.3     
  16 N16           -3.0881    -3.4596    -1.0196 N.am    
  17 O17            1.8194    -2.7802    -1.1817 O.2     
  18 F18           -0.3986    -8.3117    -0.3929 F       
  19 C19           -4.1939    -2.6897    -1.0512 C.2     
  20 C20           -4.6592    -2.1134    -2.3352 C.ar    
  21 N21           -3.9860    -2.3577    -3.4460 N.ar    
  22 C22           -4.4056    -1.8387    -4.6003 C.ar    
  23 C23           -5.5717    -1.0286    -4.6249 C.ar    
  24 N24           -6.2397    -0.7926    -3.4901 N.ar    
  25 C25           -5.8165    -1.3158    -2.3630 C.ar    
  26 O26           -4.8094    -2.4680    -0.0273 O.2     
  27 C27           -3.7096    -2.0804    -5.8004 C.ar    
  28 C28           -4.1613    -1.5373    -6.9624 C.ar    
  29 C29           -5.3065    -0.7414    -6.9855 C.ar    
  30 C30           -6.0058    -0.4858    -5.8465 C.ar    
  31 H31           -0.7832     1.8229     0.5882 H       
  32 H32            2.8105    -0.5534    -1.7169 H       
  33 H33            2.8510     1.9317    -1.6550 H       
  34 H34            1.0174     3.1235    -0.4780 H       
  35 H35           -0.7369    -2.3241     0.4888 H       
  36 H36           -2.4190    -6.7108     0.0113 H       
  37 H37            1.8021    -6.9228    -0.5895 H       
  38 H38            1.9521    -4.4718    -0.4273 H       
  39 H39           -3.4070    -4.6696     0.6636 H       
  40 H40           -2.4087    -3.2241     0.9507 H       
  41 H41           -2.5968    -3.6365    -1.8370 H       
  42 H42           -6.3568    -1.1244    -1.4477 H       
  43 H43           -2.8208    -2.6941    -5.7978 H       
  44 H44           -3.6250    -1.7247    -7.8810 H       
  45 H45           -5.6436    -0.3219    -7.9218 H       
  46 H46           -6.8909     0.1321    -5.8810 H       
@<TRIPOS>BOND
   1    1    2 ar
   2    1    6 ar
   3    1   31 1
   4    2    3 ar
   5    3    4 ar
   6    3    7 1
   7    4    5 ar
   8    4   32 1
   9    5    6 ar
  10    5   33 1
  11    6   34 1
  12    7    8 am
  13    7   17 2
  14    8    9 1
  15    8   35 1
  16    9   10 ar
  17    9   14 ar
  18   10   11 ar
  19   10   15 1
  20   11   12 ar
  21   11   36 1
  22   12   13 ar
  23   12   18 1
  24   13   14 ar
  25   13   37 1
  26   14   38 1
  27   15   16 1
  28   15   39 1
  29   15   40 1
  30   16   19 am
  31   16   41 1
  32   19   20 1
  33   19   26 2
  34   20   21 ar
  35   20   25 ar
  36   21   22 ar
  37   22   23 ar
  38   22   27 ar
  39   23   24 ar
  40   23   30 ar
  41   24   25 ar
  42   25   42 1
  43   27   28 ar
  44   27   43 1
  45   28   29 ar
  46   28   44 1
  47   29   30 ar
  48   29   45 1
  49   30   46 1

#	End of record

