#	Name: ASD04880290
#	Creating user name:	WinNT
#	Creation time:	15. 06. 2019 20:53

#	Modifying user name:	WinNT
#	Modification time:	15. 06. 2019 20:53

#	Program:	/corina/corina34_cracker 3.40 0067  02.08.2006

@<TRIPOS>MOLECULE
ASD04880290
  40   43    0    0    0
SMALL
NO_CHARGES


@<TRIPOS>ATOM
   1 C1            -0.0144     1.2117     0.0087 C.2     
   2 O2             0.0480    -0.0024     0.0311 O.2     
   3 N3             1.1159     1.9437    -0.0478 N.am    
   4 N4             1.1785     3.3283    -0.1900 N.2     
   5 C5             2.3766     3.8009    -0.2185 C.2     
   6 C6             3.3696     2.6685    -0.0844 C.3     
   7 C7             2.4853     1.4117     0.0370 C.3     
   8 C8             3.4716     9.4132    -0.7780 C.3     
   9 C9             2.0692     9.9436    -0.4123 C.3     
  10 C10            1.1619     8.7410    -0.7475 C.3     
  11 C11            2.0504     7.5232    -0.6079 C.ar    
  12 C12            1.7205     6.1875    -0.4762 C.ar    
  13 C13            2.7259     5.2266    -0.3601 C.ar    
  14 C14            4.0653     5.6236    -0.3785 C.ar    
  15 C15            4.3816     6.9580    -0.5107 C.ar    
  16 C16            3.3792     7.9095    -0.6254 C.ar    
  17 C17           -1.3299     1.8846     0.0373 C.ar    
  18 C18           -1.4042     3.2736     0.1561 C.ar    
  19 C19           -2.6374     3.8960     0.1822 C.ar    
  20 C20           -3.7978     3.1435     0.0907 C.ar    
  21 C21           -3.7288     1.7672    -0.0271 C.ar    
  22 C22           -2.5030     1.1345    -0.0601 C.ar    
  23 F23           -2.7124     5.2400     0.2975 F       
  24 H24            4.0044     2.6100    -0.9685 H       
  25 H25            3.9740     2.7944     0.8138 H       
  26 H26            2.6464     0.9181     0.9954 H       
  27 H27            2.6820     0.7256    -0.7868 H       
  28 H28            3.7182     9.6744    -1.8071 H       
  29 H29            4.2188     9.8174    -0.0950 H       
  30 H30            2.0120    10.1882     0.6484 H       
  31 H31            1.8099    10.8072    -1.0246 H       
  32 H32            0.3315     8.6860    -0.0437 H       
  33 H33            0.7887     8.8219    -1.7685 H       
  34 H34            0.6833     5.8871    -0.4623 H       
  35 H35            4.8500     4.8870    -0.2889 H       
  36 H36            5.4170     7.2651    -0.5249 H       
  37 H37           -0.5001     3.8600     0.2277 H       
  38 H38           -4.7598     3.6339     0.1118 H       
  39 H39           -4.6367     1.1866    -0.0980 H       
  40 H40           -2.4515     0.0601    -0.1567 H       
@<TRIPOS>BOND
   1    1    2 2
   2    1    3 am
   3    1   17 1
   4    3    4 1
   5    3    7 1
   6    4    5 2
   7    5    6 1
   8    5   13 1
   9    6    7 1
  10    6   24 1
  11    6   25 1
  12    7   26 1
  13    7   27 1
  14    8    9 1
  15    8   16 1
  16    8   28 1
  17    8   29 1
  18    9   10 1
  19    9   30 1
  20    9   31 1
  21   10   11 1
  22   10   32 1
  23   10   33 1
  24   11   12 ar
  25   11   16 ar
  26   12   13 ar
  27   12   34 1
  28   13   14 ar
  29   14   15 ar
  30   14   35 1
  31   15   16 ar
  32   15   36 1
  33   17   18 ar
  34   17   22 ar
  35   18   19 ar
  36   18   37 1
  37   19   20 ar
  38   19   23 1
  39   20   21 ar
  40   20   38 1
  41   21   22 ar
  42   21   39 1
  43   22   40 1

#	End of record

