#	Name: ASD04970002
#	Creating user name:	WinNT
#	Creation time:	15. 06. 2019 20:56

#	Modifying user name:	WinNT
#	Modification time:	15. 06. 2019 20:56

#	Program:	/corina/corina34_cracker 3.40 0067  02.08.2006

@<TRIPOS>MOLECULE
ASD04970002
  37   39    0    0    0
SMALL
NO_CHARGES


@<TRIPOS>ATOM
   1 C1            -0.0172     1.4148     0.0098 C.ar    
   2 C2             1.1998     2.1187     0.0020 C.ar    
   3 C3             2.3755     1.4336    -0.0130 C.ar    
   4 C4             2.3946     0.0396    -0.0207 C.ar    
   5 C5             1.2379    -0.6766    -0.0135 C.ar    
   6 C6             0.0021    -0.0041     0.0020 C.ar    
   7 C7            -1.2072    -0.7133     0.0094 C.ar    
   8 C8            -2.4061    -0.0189     0.0241 C.ar    
   9 C9            -2.4145     1.3918     0.0317 C.ar    
  10 O10           -3.5980     2.0562     0.0466 O.3     
  11 C11           -1.2460     2.0951     0.0194 C.ar    
  12 C12           -3.6824    -0.7598     0.0314 C.2     
  13 N13           -3.6794    -2.1075     0.0237 N.am    
  14 C14           -4.9464    -2.8430     0.0310 C.3     
  15 O15           -4.7367    -0.1543     0.0443 O.2     
  16 C16           -5.5556    -6.4936    -0.6114 C.3     
  17 C17           -5.9880    -5.1513     0.0273 C.3     
  18 C18           -4.6634    -4.3465     0.0199 C.3     
  19 O19           -4.0389    -4.7372    -1.2218 O.3     
  20 C20           -4.2654    -6.1478    -1.3799 C.3     
  21 H21            1.2016     3.1987     0.0074 H       
  22 H22            3.3082     1.9781    -0.0193 H       
  23 H23            3.3417    -0.4794    -0.0329 H       
  24 H24            1.2681    -1.7562    -0.0199 H       
  25 H25           -1.2043    -1.7933     0.0032 H       
  26 H26           -3.9325     2.2440     0.9342 H       
  27 H27           -1.2654     3.1749     0.0257 H       
  28 H28           -2.8383    -2.5906     0.0134 H       
  29 H29           -5.5105    -2.5860     0.9276 H       
  30 H30           -5.5266    -2.5759    -0.8523 H       
  31 H31           -5.3525    -7.2356     0.1608 H       
  32 H32           -6.3226    -6.8547    -1.2965 H       
  33 H33           -6.7464    -4.6578    -0.5805 H       
  34 H34           -6.3456    -5.3025     1.0458 H       
  35 H35           -4.0404    -4.6249     0.8699 H       
  36 H36           -3.4262    -6.7067    -0.9657 H       
  37 H37           -4.3877    -6.3875    -2.4362 H       
@<TRIPOS>BOND
   1    1    6 ar
   2    1    2 ar
   3    1   11 ar
   4    2    3 ar
   5    2   21 1
   6    3    4 ar
   7    3   22 1
   8    4    5 ar
   9    4   23 1
  10    5   24 1
  11    5    6 ar
  12    6    7 ar
  13    7   25 1
  14    7    8 ar
  15    8   12 1
  16    8    9 ar
  17    9   10 1
  18    9   11 ar
  19   10   26 1
  20   11   27 1
  21   12   15 2
  22   12   13 am
  23   13   14 1
  24   13   28 1
  25   14   29 1
  26   14   30 1
  27   14   18 1
  28   16   20 1
  29   16   17 1
  30   16   31 1
  31   16   32 1
  32   17   18 1
  33   17   33 1
  34   17   34 1
  35   18   35 1
  36   18   19 1
  37   19   20 1
  38   20   36 1
  39   20   37 1

#	End of record

