#	Name: ASD05300033
#	Creating user name:	WinNT
#	Creation time:	15. 06. 2019 20:58

#	Modifying user name:	WinNT
#	Modification time:	15. 06. 2019 20:58

#	Program:	/corina/corina34_cracker 3.40 0067  02.08.2006

@<TRIPOS>MOLECULE
ASD05300033
  44   47    0    0    0
SMALL
NO_CHARGES


@<TRIPOS>ATOM
   1 F1             0.8629    -3.4860    -5.0600 F       
   2 O2            -0.0173     1.4248     0.0099 O.3     
   3 O3             2.7879     5.4160     0.0041 O.3     
   4 O4             4.7022     4.2054    -0.0208 O.3     
   5 N5            -3.4804    -0.6759     1.3507 N.3     
   6 C6            -1.4165    -2.0589    -0.1213 C.3     
   7 C7            -1.4333    -0.5336     0.0129 C.3     
   8 C8            -2.8524    -2.5856    -0.0492 C.3     
   9 C9            -2.1096    -0.1498     1.3310 C.3     
  10 C10           -3.4876    -2.1422     1.2707 C.3     
  11 C11            0.0021    -0.0041     0.0020 C.3     
  12 C12           -0.8057    -2.4413    -1.4448 C.ar    
  13 C13            0.3334    -3.2240    -1.4794 C.ar    
  14 C14           -1.3880    -2.0139    -2.6235 C.ar    
  15 C15            0.8944    -3.5753    -2.6925 C.ar    
  16 C16           -0.8290    -2.3644    -3.8378 C.ar    
  17 C17            1.1857     2.0585     0.0018 C.ar    
  18 C18            0.3150    -3.1435    -3.8735 C.ar    
  19 C19            1.2392     3.4440     0.0087 C.ar    
  20 C20            2.3589     1.3188    -0.0129 C.ar    
  21 C21            2.4648     4.0898     0.0005 C.ar    
  22 C22            3.6413     3.3449    -0.0148 C.ar    
  23 C23            3.5828     1.9609    -0.0215 C.ar    
  24 C24            4.1700     5.4742     0.4034 C.3     
  25 H25           -0.8294    -2.4894     0.6899 H       
  26 H26           -1.9877    -0.1012    -0.8200 H       
  27 H27           -3.4292    -2.1854    -0.8831 H       
  28 H28           -2.8438    -3.6743    -0.1012 H       
  29 H29           -2.1360     0.9360     1.4229 H       
  30 H30           -1.5469    -0.5711     2.1640 H       
  31 H31           -2.9184    -2.5542     2.1041 H       
  32 H32           -4.5148    -2.5035     1.3189 H       
  33 H33            0.5123    -0.3556    -0.8948 H       
  34 H34            0.5293    -0.3651     0.8851 H       
  35 H35           -3.9788    -0.3559     2.1675 H       
  36 H36            0.7851    -3.5607    -0.5580 H       
  37 H37           -2.2804    -1.4062    -2.5954 H       
  38 H38            1.7847    -4.1862    -2.7192 H       
  39 H39           -1.2839    -2.0301    -4.7585 H       
  40 H40            0.3255     4.0197     0.0198 H       
  41 H41            2.3159     0.2396    -0.0185 H       
  42 H42            4.4949     1.3827    -0.0331 H       
  43 H43            4.6810     6.2927    -0.1037 H       
  44 H44            4.2520     5.5817     1.4850 H       
@<TRIPOS>BOND
   1    1   18 1
   2    2   11 1
   3    2   17 1
   4    3   21 1
   5    3   24 1
   6    4   22 1
   7    4   24 1
   8    5    9 1
   9    5   10 1
  10    5   35 1
  11    6    7 1
  12    6    8 1
  13    6   12 1
  14    6   25 1
  15    7    9 1
  16    7   11 1
  17    7   26 1
  18    8   10 1
  19    8   27 1
  20    8   28 1
  21    9   29 1
  22    9   30 1
  23   10   31 1
  24   10   32 1
  25   11   33 1
  26   11   34 1
  27   12   13 ar
  28   12   14 ar
  29   13   15 ar
  30   13   36 1
  31   14   16 ar
  32   14   37 1
  33   15   18 ar
  34   15   38 1
  35   16   18 ar
  36   16   39 1
  37   17   19 ar
  38   17   20 ar
  39   19   21 ar
  40   19   40 1
  41   20   23 ar
  42   20   41 1
  43   21   22 ar
  44   22   23 ar
  45   23   42 1
  46   24   43 1
  47   24   44 1

#	End of record

