#	Name: ASD01812033
#	Creating user name:	WinNT
#	Creation time:	15. 06. 2019 19:27

#	Modifying user name:	WinNT
#	Modification time:	15. 06. 2019 19:27

#	Program:	/corina/corina34_cracker 3.40 0067  02.08.2006

@<TRIPOS>MOLECULE
ASD01812033
  67   71    0    0    0
SMALL
NO_CHARGES


@<TRIPOS>ATOM
   1 C1            -0.0169     1.3921     0.0097 C.ar    
   2 C2             0.0021    -0.0041     0.0020 C.ar    
   3 C3             1.1598     2.0864     0.0022 C.ar    
   4 C4            -1.0372    -1.0364     0.0059 C.2     
   5 C5             1.2305    -0.6893    -0.0134 C.ar    
   6 C6             2.3748     1.4148    -0.0130 C.ar    
   7 C7            -0.4110    -2.2237    -0.0067 C.2     
   8 S8            -2.7789    -0.7702     0.0247 S.o2    
   9 C9             2.4165     0.0380    -0.0197 C.ar    
  10 N10            0.9443    -2.0361    -0.0183 N.pl3   
  11 C11           -3.0985     0.0223     1.6248 C.3     
  12 C12           -4.5728     0.3035     1.7605 C.2     
  13 O13           -5.3330    -0.0008     0.8660 O.2     
  14 N14           -5.0464     0.8931     2.8761 N.am    
  15 C15           -6.4112     1.1534     3.0018 C.2     
  16 C16           -7.4267     0.8559     2.0545 C.2     
  17 N17           -7.0127     1.7149     4.0175 N.2     
  18 C18           -8.5611     1.2994     2.6423 C.2     
  19 O19           -8.2042     1.8041     3.8322 O.3     
  20 C20           -9.9548     1.2358     2.0725 C.3     
  21 H21           -4.4384     1.1365     3.5916 H       
  22 O22           -3.0050     0.1446    -1.0389 O.2     
  23 O23           -3.3336    -2.0781    -0.0036 O.2     
  24 C24            1.9423    -3.1084    -0.0345 C.3     
  25 C25            2.3890    -3.4003     1.3749 C.ar    
  26 C26            1.7208    -4.3479     2.1285 C.ar    
  27 C27            2.1253    -4.6202     3.4231 C.ar    
  28 C28            3.1990    -3.9468     3.9692 C.ar    
  29 C29            3.8761    -2.9916     3.2142 C.ar    
  30 C30            3.4681    -2.7252     1.9094 C.ar    
  31 C31            5.0316    -2.2636     3.7967 C.2     
  32 C32            5.5376    -2.4278     5.0531 C.2     
  33 N33            6.5795    -1.5826     5.1869 N.pl3   
  34 N34            6.7264    -0.8758     3.9872 N.2     
  35 C35            5.8086    -1.2824     3.1507 C.2     
  36 C36            7.4135    -1.4297     6.3815 C.3     
  37 C37            6.7473    -0.4465     7.3461 C.3     
  38 C38            7.6752    -0.1909     8.5355 C.3     
  39 C39            7.5750    -2.7874     7.0681 C.3     
  40 H40           -0.9583     1.9213     0.0170 H       
  41 H41            1.1446     3.1663     0.0078 H       
  42 H42            3.2966     1.9776    -0.0192 H       
  43 H43           -0.9039    -3.1847    -0.0068 H       
  44 H44            3.3667    -0.4752    -0.0311 H       
  45 H45           -2.7795    -0.6409     2.4289 H       
  46 H46           -2.5431     0.9584     1.6840 H       
  47 H47           -7.3182     0.3848     1.0887 H       
  48 H48          -10.4262     0.2989     2.3692 H       
  49 H49          -10.5408     2.0732     2.4512 H       
  50 H50           -9.9055     1.2892     0.9849 H       
  51 H51            1.5038    -4.0063    -0.4699 H       
  52 H52            2.8003    -2.7974    -0.6305 H       
  53 H53            0.8798    -4.8769     1.7050 H       
  54 H54            1.5998    -5.3610     4.0075 H       
  55 H55            3.5136    -4.1597     4.9802 H       
  56 H56            3.9895    -1.9856     1.3198 H       
  57 H57            5.1699    -3.1108     5.8045 H       
  58 H58            5.6659    -0.9233     2.1422 H       
  59 H59            8.3936    -1.0490     6.0942 H       
  60 H60            6.5515     0.4931     6.8295 H       
  61 H61            5.8073    -0.8678     7.7026 H       
  62 H62            7.8710    -1.1305     9.0521 H       
  63 H63            8.6152     0.2304     8.1790 H       
  64 H64            7.2006     0.5095     9.2227 H       
  65 H65            8.1955    -2.6736     7.9569 H       
  66 H66            6.5949    -3.1681     7.3554 H       
  67 H67            8.0496    -3.4879     6.3809 H       
@<TRIPOS>BOND
   1    1    2 ar
   2    1    3 ar
   3    1   40 1
   4    2    4 1
   5    2    5 ar
   6    3    6 ar
   7    3   41 1
   8    4    7 2
   9    4    8 1
  10    5    9 ar
  11    5   10 1
  12    6    9 ar
  13    6   42 1
  14    7   10 1
  15    7   43 1
  16    8   22 2
  17    8   23 2
  18    8   11 1
  19    9   44 1
  20   10   24 1
  21   11   12 1
  22   11   45 1
  23   11   46 1
  24   12   13 2
  25   12   14 am
  26   14   21 1
  27   14   15 1
  28   15   17 2
  29   15   16 1
  30   16   18 2
  31   16   47 1
  32   17   19 1
  33   18   20 1
  34   18   19 1
  35   20   48 1
  36   20   49 1
  37   20   50 1
  38   24   25 1
  39   24   51 1
  40   24   52 1
  41   25   26 ar
  42   25   30 ar
  43   26   27 ar
  44   26   53 1
  45   27   28 ar
  46   27   54 1
  47   28   29 ar
  48   28   55 1
  49   29   30 ar
  50   29   31 1
  51   30   56 1
  52   31   32 2
  53   31   35 1
  54   32   33 1
  55   32   57 1
  56   33   34 1
  57   33   36 1
  58   34   35 2
  59   35   58 1
  60   36   37 1
  61   36   39 1
  62   36   59 1
  63   37   38 1
  64   37   60 1
  65   37   61 1
  66   38   62 1
  67   38   63 1
  68   38   64 1
  69   39   65 1
  70   39   66 1
  71   39   67 1

#	End of record

