#	Name: ASD01918073
#	Creating user name:	WinNT
#	Creation time:	15. 06. 2019 20:10

#	Modifying user name:	WinNT
#	Modification time:	15. 06. 2019 20:10

#	Program:	/corina/corina34_cracker 3.40 0067  02.08.2006

@<TRIPOS>MOLECULE
ASD01918073
  53   56    0    0    0
SMALL
NO_CHARGES


@<TRIPOS>ATOM
   1 C1            -0.2607     1.4756     0.0772 C.3     
   2 C2            -0.0957    -0.0212     0.0931 C.2     
   3 C3             1.0580    -0.6633    -0.2156 C.2     
   4 C4             2.3320     0.0289    -0.6201 C.3     
   5 C5             1.9922     1.4717    -1.0167 C.3     
   6 C6             1.1339     2.1150     0.0752 C.3     
   7 N7             0.8091    -1.9774    -0.0835 N.pl3   
   8 N8            -0.4219    -2.1154     0.2805 N.2     
   9 N9            -0.9865    -0.9607     0.3934 N.2     
  10 C10            1.7663    -3.0625    -0.3124 C.3     
  11 C11            1.0080     3.5930    -0.1908 C.2     
  12 N12            1.3966     4.5615     0.6006 N.2     
  13 C13            1.0838     5.7071    -0.0467 C.2     
  14 N14            0.5290     5.3695    -1.1824 N.2     
  15 O15            0.4842     4.1615    -1.2812 O.3     
  16 C16            1.3243     7.0873     0.4399 C.ar    
  17 C17            3.0178    -2.8259     0.5354 C.3     
  18 C18            1.1287    -4.3965     0.0809 C.3     
  19 C19            2.1522    -3.0985    -1.7925 C.3     
  20 C20            0.9463     8.1787    -0.3412 C.ar    
  21 C21            1.1702     9.4604     0.1130 C.ar    
  22 C22            1.7727     9.6656     1.3494 C.ar    
  23 C23            2.1505     8.5785     2.1299 C.ar    
  24 C24            1.9235     7.2952     1.6816 C.ar    
  25 N25            1.9987    10.9632     1.8069 N.pl3   
  26 C26            1.7202    12.1065     0.9343 C.3     
  27 C27            2.5148    11.1832     3.1602 C.3     
  28 H28           -0.8036     1.7757    -0.8191 H       
  29 H29           -0.8095     1.7941     0.9635 H       
  30 H30            3.0298     0.0328     0.2173 H       
  31 H31            2.7785    -0.4898    -1.4685 H       
  32 H32            2.9134     2.0416    -1.1375 H       
  33 H33            1.4410     1.4695    -1.9571 H       
  34 H34            1.6056     1.9600     1.0456 H       
  35 H35            2.7429    -2.8003     1.5898 H       
  36 H36            3.7300    -3.6332     0.3651 H       
  37 H37            3.4721    -1.8755     0.2551 H       
  38 H38            0.2371    -4.5651    -0.5230 H       
  39 H39            1.8409    -5.2039    -0.0894 H       
  40 H40            0.8537    -4.3709     1.1354 H       
  41 H41            2.5260    -2.1201    -2.0944 H       
  42 H42            2.9286    -3.8477    -1.9475 H       
  43 H43            1.2770    -3.3532    -2.3901 H       
  44 H44            0.4786     8.0197    -1.3016 H       
  45 H45            0.8778    10.3060    -0.4918 H       
  46 H46            2.6186     8.7399     3.0897 H       
  47 H47            2.2133     6.4512     2.2899 H       
  48 H48            0.6895    12.4306     1.0780 H       
  49 H49            2.3962    12.9251     1.1811 H       
  50 H50            1.8676    11.8144    -0.1055 H       
  51 H51            2.7442    10.2230     3.6222 H       
  52 H52            3.4204    11.7878     3.1099 H       
  53 H53            1.7638    11.7026     3.7555 H       
@<TRIPOS>BOND
   1    1    2 1
   2    1    6 1
   3    1   28 1
   4    1   29 1
   5    2    9 1
   6    2    3 2
   7    3    4 1
   8    3    7 1
   9    4    5 1
  10    4   30 1
  11    4   31 1
  12    5    6 1
  13    5   32 1
  14    5   33 1
  15    6   11 1
  16    6   34 1
  17    7    8 1
  18    7   10 1
  19    8    9 2
  20   10   17 1
  21   10   18 1
  22   10   19 1
  23   11   12 2
  24   11   15 1
  25   12   13 1
  26   13   14 2
  27   13   16 1
  28   14   15 1
  29   16   20 ar
  30   16   24 ar
  31   17   35 1
  32   17   36 1
  33   17   37 1
  34   18   38 1
  35   18   39 1
  36   18   40 1
  37   19   41 1
  38   19   42 1
  39   19   43 1
  40   20   21 ar
  41   20   44 1
  42   21   22 ar
  43   21   45 1
  44   22   23 ar
  45   22   25 1
  46   23   24 ar
  47   23   46 1
  48   24   47 1
  49   25   26 1
  50   25   27 1
  51   26   48 1
  52   26   49 1
  53   26   50 1
  54   27   51 1
  55   27   52 1
  56   27   53 1

#	End of record

