#	Name: ASD01410247
#	Creating user name:	WinNT
#	Creation time:	15. 06. 2019 19:17

#	Modifying user name:	WinNT
#	Modification time:	15. 06. 2019 19:17

#	Program:	/corina/corina34_cracker 3.40 0067  02.08.2006

@<TRIPOS>MOLECULE
ASD01410247
  31   32    0    0    0
SMALL
NO_CHARGES


@<TRIPOS>ATOM
   1 C1            -0.0165     1.3753     0.0329 C.ar    
   2 C2             0.0019    -0.0056     0.0280 C.ar    
   3 C3            -1.1843    -0.7223     0.0316 C.ar    
   4 C4            -2.3949    -0.0633     0.0401 C.ar    
   5 C5            -2.4277     1.3336     0.0451 C.ar    
   6 C6            -1.2262     2.0547     0.0468 C.ar    
   7 O7            -1.2458     3.4113     0.0520 O.3     
   8 I8             1.7845     2.4456     0.0280 I       
   9 C9            -3.7198     2.0452     0.0536 C.2     
  10 N10           -4.8731     1.3478     0.0567 N.am    
  11 O11           -3.7444     3.2610     0.0580 O.2     
  12 C12           -7.2173     1.5451    -0.4919 C.ar    
  13 C13           -6.0966     2.0184     0.1776 C.ar    
  14 C14           -6.1897     3.1568     0.9674 C.ar    
  15 C15           -7.3965     3.8172     1.0865 C.ar    
  16 C16           -8.5158     3.3435     0.4178 C.ar    
  17 C17           -8.4236     2.2064    -0.3714 C.ar    
  18 I18           -1.1372    -2.8168     0.0235 I       
  19 O19           -9.7039     3.9941     0.5360 O.3     
  20 C20          -10.8149     3.4511    -0.1801 C.3     
  21 H21            0.9460    -0.5299     0.0210 H       
  22 H22           -3.3168    -0.6258     0.0426 H       
  23 H23           -1.2506     3.8012     0.9369 H       
  24 H24           -4.8558     0.3814    -0.0250 H       
  25 H25           -7.1447     0.6624    -1.1098 H       
  26 H26           -5.3185     3.5253     1.4886 H       
  27 H27           -7.4690     4.7026     1.7008 H       
  28 H28           -9.2953     1.8384    -0.8920 H       
  29 H29          -11.6981     4.0639     0.0004 H       
  30 H30          -10.5906     3.4424    -1.2467 H       
  31 H31          -11.0036     2.4328     0.1598 H       
@<TRIPOS>BOND
   1    1    2 ar
   2    1    8 1
   3    1    6 ar
   4    2    3 ar
   5    2   21 1
   6    3    4 ar
   7    3   18 1
   8    4    5 ar
   9    4   22 1
  10    5    6 ar
  11    5    9 1
  12    6    7 1
  13    7   23 1
  14    9   10 am
  15    9   11 2
  16   10   13 1
  17   10   24 1
  18   12   13 ar
  19   12   17 ar
  20   12   25 1
  21   13   14 ar
  22   14   15 ar
  23   14   26 1
  24   15   16 ar
  25   15   27 1
  26   16   17 ar
  27   16   19 1
  28   17   28 1
  29   19   20 1
  30   20   29 1
  31   20   30 1
  32   20   31 1

#	End of record

