#	Name: ASD03092565
#	Creating user name:	WinNT
#	Creation time:	15. 06. 2019 20:32

#	Modifying user name:	WinNT
#	Modification time:	15. 06. 2019 20:32

#	Program:	/corina/corina34_cracker 3.40 0067  02.08.2006

@<TRIPOS>MOLECULE
ASD03092565
  39   41    0    0    0
SMALL
NO_CHARGES


@<TRIPOS>ATOM
   1 S1            -0.0213     1.7180     0.0115 S.3     
   2 C2             0.0021    -0.0041     0.0020 C.2     
   3 N3             1.2960    -0.3581    -0.0122 N.am    
   4 C4             2.2159     0.6254    -0.0157 C.2     
   5 C5             1.7433     1.8886    -0.0044 C.2     
   6 C6             2.5200     3.1325    -0.0056 C.2     
   7 O7             3.7362     3.0904    -0.0178 O.2     
   8 N8             1.8870     4.3223     0.0069 N.am    
   9 O9            -0.9609    -0.7493     0.0076 O.2     
  10 C10            2.6630     5.5649     0.0057 C.3     
  11 N11           -0.8378     9.9651     0.3366 N.pl3   
  12 C12           -0.9296    10.0898     1.6961 C.2     
  13 C13           -0.1793     9.1504     2.2934 C.2     
  14 C14            0.4438     8.3596     1.2294 C.ar    
  15 C15            1.3135     7.2673     1.2144 C.ar    
  16 C16            1.7240     6.7435     0.0212 C.ar    
  17 C17            1.2834     7.2886    -1.1772 C.ar    
  18 C18            0.4257     8.3665    -1.1855 C.ar    
  19 C19           -0.0052     8.9159     0.0179 C.ar    
  20 C20           -1.7508    11.1281     2.4162 C.3     
  21 C21            3.6936     0.3304    -0.0314 C.3     
  22 C22            1.6949    -1.7677    -0.0231 C.3     
  23 H23            0.9176     4.3558     0.0166 H       
  24 H24            3.3000     5.5963     0.8896 H       
  25 H25            3.2824     5.6056    -0.8902 H       
  26 H26           -1.2946    10.5293    -0.3068 H       
  27 H27           -0.0581     9.0053     3.3568 H       
  28 H28            1.6611     6.8385     2.1427 H       
  29 H29            1.6167     6.8636    -2.1124 H       
  30 H30            0.0888     8.7837    -2.1229 H       
  31 H31           -2.7532    10.7389     2.5945 H       
  32 H32           -1.2791    11.3675     3.3693 H       
  33 H33           -1.8140    12.0288     1.8057 H       
  34 H34            4.0401     0.2648    -1.0628 H       
  35 H35            4.2290     1.1293     0.4816 H       
  36 H36            3.8806    -0.6162     0.4756 H       
  37 H37            0.8051    -2.3972    -0.0181 H       
  38 H38            2.2800    -1.9728    -0.9196 H       
  39 H39            2.2965    -1.9819     0.8602 H       
@<TRIPOS>BOND
   1    1    2 1
   2    1    5 1
   3    2    3 am
   4    2    9 2
   5    3    4 1
   6    3   22 1
   7    4    5 2
   8    4   21 1
   9    5    6 1
  10    6    7 2
  11    6    8 am
  12    8   10 1
  13    8   23 1
  14   10   16 1
  15   10   24 1
  16   10   25 1
  17   11   12 1
  18   11   19 1
  19   11   26 1
  20   12   13 2
  21   12   20 1
  22   13   14 1
  23   13   27 1
  24   14   15 ar
  25   14   19 ar
  26   15   16 ar
  27   15   28 1
  28   16   17 ar
  29   17   18 ar
  30   17   29 1
  31   18   19 ar
  32   18   30 1
  33   20   31 1
  34   20   32 1
  35   20   33 1
  36   21   34 1
  37   21   35 1
  38   21   36 1
  39   22   37 1
  40   22   38 1
  41   22   39 1

#	End of record

