#	Name: ASD00170336
#	Creating user name:	WinNT
#	Creation time:	15. 06. 2019 18:31

#	Modifying user name:	WinNT
#	Modification time:	15. 06. 2019 18:31

#	Program:	/corina/corina34_cracker 3.40 0067  02.08.2006

@<TRIPOS>MOLECULE
ASD00170336
  40   42    0    0    0
SMALL
NO_CHARGES


@<TRIPOS>ATOM
   1 C1            -0.0185     1.5118     0.0104 C.3     
   2 C2             0.0021    -0.0041     0.0020 C.2     
   3 C3             1.0772    -0.7300    -0.3285 C.2     
   4 C4             2.3997    -0.0976    -0.7337 C.3     
   5 C5             2.1396     1.3715    -1.0822 C.3     
   6 N6             1.3687     1.9995    -0.0003 N.3     
   7 C7             0.8278    -2.1566    -0.2538 C.2     
   8 C8            -0.4486    -2.4621     0.1366 C.2     
   9 S9            -1.3494    -1.0437     0.4142 S.3     
  10 C10            1.8395    -3.1688    -0.5646 C.2     
  11 O11            2.5685    -3.5907     0.3143 O.2     
  12 N12            1.9633    -3.6334    -1.8237 N.am    
  13 C13            1.4110     3.4642    -0.1051 C.3     
  14 C14            2.9753    -4.6460    -2.1346 C.3     
  15 C15            2.9064    -4.9917    -3.5998 C.ar    
  16 C16            3.6664    -4.2850    -4.5131 C.ar    
  17 C17            3.6030    -4.6024    -5.8579 C.ar    
  18 C18            2.7789    -5.6273    -6.2883 C.ar    
  19 C19            2.0196    -6.3330    -5.3744 C.ar    
  20 C20            2.0876    -6.0190    -4.0296 C.ar    
  21 Cl21           4.5567    -3.7150    -7.0055 Cl      
  22 N22           -0.9386    -3.7457     0.2855 N.pl3   
  23 H23           -0.5411     1.8756    -0.8743 H       
  24 H24           -0.5240     1.8660     0.9087 H       
  25 H25            3.1061    -0.1598     0.0941 H       
  26 H26            2.8042    -0.6159    -1.6031 H       
  27 H27            3.0905     1.8911    -1.2005 H       
  28 H28            1.5745     1.4301    -2.0124 H       
  29 H29            1.3824    -3.2972    -2.5240 H       
  30 H30            0.8328     3.9035     0.7077 H       
  31 H31            2.4449     3.8033    -0.0402 H       
  32 H32            0.9868     3.7724    -1.0607 H       
  33 H33            3.9651    -4.2545    -1.8998 H       
  34 H34            2.7883    -5.5408    -1.5410 H       
  35 H35            4.3092    -3.4850    -4.1766 H       
  36 H36            2.7287    -5.8753    -7.3382 H       
  37 H37            1.3763    -7.1329    -5.7102 H       
  38 H38            1.4977    -6.5739    -3.3152 H       
  39 H39           -0.3646    -4.5074     0.1091 H       
  40 H40           -1.8566    -3.8849     0.5663 H       
@<TRIPOS>BOND
   1    1    2 1
   2    1    6 1
   3    1   23 1
   4    1   24 1
   5    2    3 2
   6    2    9 1
   7    3    4 1
   8    3    7 1
   9    4    5 1
  10    4   25 1
  11    4   26 1
  12    5    6 1
  13    5   27 1
  14    5   28 1
  15    6   13 1
  16    7    8 2
  17    7   10 1
  18    8    9 1
  19    8   22 1
  20   10   11 2
  21   10   12 am
  22   12   14 1
  23   12   29 1
  24   13   30 1
  25   13   31 1
  26   13   32 1
  27   14   15 1
  28   14   33 1
  29   14   34 1
  30   15   16 ar
  31   15   20 ar
  32   16   17 ar
  33   16   35 1
  34   17   18 ar
  35   17   21 1
  36   18   19 ar
  37   18   36 1
  38   19   20 ar
  39   19   37 1
  40   20   38 1
  41   22   39 1
  42   22   40 1

#	End of record

