#	Name: ASD03160009
#	Creating user name:	WinNT
#	Creation time:	15. 06. 2019 20:33

#	Modifying user name:	WinNT
#	Modification time:	15. 06. 2019 20:33

#	Program:	/corina/corina34_cracker 3.40 0067  02.08.2006

@<TRIPOS>MOLECULE
ASD03160009
  69   73    0    0    0
SMALL
NO_CHARGES


@<TRIPOS>ATOM
   1 C1            -0.0187     1.5257     0.0104 C.3     
   2 C2             0.0021    -0.0041     0.0020 C.3     
   3 C3             0.7566    -0.4750    -1.2461 C.3     
   4 C4             2.1323     0.1351    -1.2423 C.2     
   5 C5             2.3817     1.3648    -0.6040 C.2     
   6 C6             1.3958     2.0542    -0.0002 C.2     
   7 O7             1.6466     3.2293     0.6023 O.3     
   8 C8             3.7900     1.9045    -0.6052 C.3     
   9 C9             3.9618     2.9087     0.5066 C.2     
  10 C10            2.8846     3.5106     1.0438 C.2     
  11 C11            3.0405     4.5221     2.1539 C.3     
  12 C12            5.2636     3.1925     0.9612 C.2     
  13 C13            5.4999     4.1660     2.0840 C.3     
  14 C14            4.2695     4.1764     2.9971 C.3     
  15 C15            4.0686     2.5709    -1.9279 C.ar    
  16 C16            5.0951     2.1090    -2.7308 C.ar    
  17 C17            5.3525     2.7182    -3.9436 C.ar    
  18 C18            4.5799     3.7943    -4.3558 C.ar    
  19 C19            3.5505     4.2558    -3.5484 C.ar    
  20 C20            3.2935     3.6396    -2.3390 C.ar    
  21 C21            0.7140    -0.5151     1.2561 C.3     
  22 C22           -1.4316    -0.5372    -0.0327 C.3     
  23 C23            4.4523     5.2272     4.0940 C.3     
  24 C24            4.0872     2.7949     3.6288 C.3     
  25 O25            4.8314     4.3956    -5.5483 O.3     
  26 C26            3.9959     5.4976    -5.9082 C.3     
  27 C27            4.4206     6.0322    -7.2517 C.ar    
  28 C28            5.4771     5.4482    -7.9255 C.ar    
  29 C29            5.8666     5.9386    -9.1576 C.ar    
  30 C30            5.1993     7.0128    -9.7165 C.ar    
  31 C31            4.1425     7.5960    -9.0433 C.ar    
  32 C32            3.7502     7.1028    -7.8127 C.ar    
  33 C33            2.5945     7.7354    -7.0810 C.3     
  34 O34            3.0434    -0.4438    -1.7993 O.2     
  35 O35            6.2119     2.6421     0.4385 O.2     
  36 H36           -0.5471     1.8861    -0.8722 H       
  37 H37           -0.5301     1.8765     0.9068 H       
  38 H38            0.8391    -1.5618    -1.2346 H       
  39 H39            0.2188    -0.1573    -2.1394 H       
  40 H40            4.4919     1.0830    -0.4618 H       
  41 H41            3.1635     5.5162     1.7242 H       
  42 H42            2.1520     4.5078     2.7850 H       
  43 H43            6.3761     3.8591     2.6551 H       
  44 H44            5.6592     5.1637     1.6749 H       
  45 H45            5.6965     1.2715    -2.4093 H       
  46 H46            6.1547     2.3573    -4.5702 H       
  47 H47            2.9477     5.0933    -3.8670 H       
  48 H48            2.4892     3.9954    -1.7122 H       
  49 H49            0.1848    -0.1652     2.1424 H       
  50 H50            0.7274    -1.6050     1.2476 H       
  51 H51            1.7371    -0.1393     1.2717 H       
  52 H52           -1.9315    -0.1770    -0.9318 H       
  53 H53           -1.4140    -1.6270    -0.0386 H       
  54 H54           -1.9708    -0.1873     0.8477 H       
  55 H55            3.5687     5.2440     4.7320 H       
  56 H56            5.3283     4.9786     4.6930 H       
  57 H57            4.5901     6.2078     3.6384 H       
  58 H58            3.9659     2.0492     2.8431 H       
  59 H59            4.9640     2.5511     4.2288 H       
  60 H60            3.2019     2.8000     4.2646 H       
  61 H61            2.9590     5.1656    -5.9605 H       
  62 H62            4.0884     6.2836    -5.1586 H       
  63 H63            5.9983     4.6091    -7.4889 H       
  64 H64            6.6924     5.4828    -9.6837 H       
  65 H65            5.5041     7.3964   -10.6790 H       
  66 H66            3.6215     8.4354    -9.4797 H       
  67 H67            2.9644     8.5368    -6.4414 H       
  68 H68            1.8872     8.1438    -7.8029 H       
  69 H69            2.0961     6.9832    -6.4696 H       
@<TRIPOS>BOND
   1    1    2 1
   2    1    6 1
   3    1   36 1
   4    1   37 1
   5    2    3 1
   6    2   21 1
   7    2   22 1
   8    3    4 1
   9    3   38 1
  10    3   39 1
  11    4    5 1
  12    4   34 2
  13    5    8 1
  14    5    6 2
  15    6    7 1
  16    7   10 1
  17    8    9 1
  18    8   15 1
  19    8   40 1
  20    9   12 1
  21    9   10 2
  22   10   11 1
  23   11   14 1
  24   11   41 1
  25   11   42 1
  26   12   13 1
  27   12   35 2
  28   13   14 1
  29   13   43 1
  30   13   44 1
  31   14   23 1
  32   14   24 1
  33   15   16 ar
  34   15   20 ar
  35   16   17 ar
  36   16   45 1
  37   17   18 ar
  38   17   46 1
  39   18   19 ar
  40   18   25 1
  41   19   20 ar
  42   19   47 1
  43   20   48 1
  44   21   49 1
  45   21   50 1
  46   21   51 1
  47   22   52 1
  48   22   53 1
  49   22   54 1
  50   23   55 1
  51   23   56 1
  52   23   57 1
  53   24   58 1
  54   24   59 1
  55   24   60 1
  56   25   26 1
  57   26   27 1
  58   26   61 1
  59   26   62 1
  60   27   28 ar
  61   27   32 ar
  62   28   29 ar
  63   28   63 1
  64   29   30 ar
  65   29   64 1
  66   30   31 ar
  67   30   65 1
  68   31   32 ar
  69   31   66 1
  70   32   33 1
  71   33   67 1
  72   33   68 1
  73   33   69 1

#	End of record

