#	Name: ASD01028539
#	Creating user name:	WinNT
#	Creation time:	15. 06. 2019 18:57

#	Modifying user name:	WinNT
#	Modification time:	15. 06. 2019 18:57

#	Program:	/corina/corina34_cracker 3.40 0067  02.08.2006

@<TRIPOS>MOLECULE
ASD01028539
  47   51    0    0    0
SMALL
NO_CHARGES


@<TRIPOS>ATOM
   1 N1            -0.0169     1.3920     0.0097 N.2     
   2 N2             0.0021    -0.0041     0.0020 N.pl3   
   3 C3             1.0992     2.0716     0.0027 C.2     
   4 C4             2.3404     1.4215    -0.0131 C.2     
   5 C5             2.4005     0.0612    -0.0210 C.2     
   6 C6             1.2021    -0.6751    -0.0130 C.2     
   7 N7             0.9183    -1.9672    -0.0171 N.2     
   8 N8            -0.3599    -2.1214    -0.0052 N.2     
   9 C9            -0.9566    -0.9555     0.0056 C.2     
  10 C10           -2.4447    -0.7183     0.0220 C.3     
  11 C11            1.0507     3.5778     0.0112 C.3     
  12 N12           -2.9127    -0.6476     1.4084 N.pl3   
  13 C13           -4.2570    -0.4340     1.6767 C.ar    
  14 C14           -5.1745    -0.2849     0.6498 C.ar    
  15 C15           -6.5139    -0.0721     0.9474 C.ar    
  16 N16           -6.9441    -0.0066     2.1861 N.ar    
  17 C17           -6.1135    -0.1419     3.2252 C.ar    
  18 C18           -4.7337    -0.3678     3.0093 C.ar    
  19 C19           -6.5888    -0.0699     4.5478 C.ar    
  20 C20           -5.6876    -0.2168     5.5692 C.ar    
  21 C21           -4.3361    -0.4318     5.2797 C.ar    
  22 N22           -3.9039    -0.5042     4.0446 N.ar    
  23 O23           -6.1056    -0.1534     6.8603 O.3     
  24 C24           -5.1105    -0.3153     7.8731 C.3     
  25 O25            1.6659     4.1219    -1.1747 O.3     
  26 N26            0.9200     5.2606    -1.5565 N.2     
  27 C27           -0.2380     5.3052    -1.0214 C.2     
  28 C28           -0.4037     4.0870    -0.1329 C.3     
  29 C29           -1.2667     6.3853    -1.2364 C.3     
  30 H30            3.2518     2.0008    -0.0194 H       
  31 H31            3.3544    -0.4451    -0.0335 H       
  32 H32           -2.6687     0.2201    -0.4854 H       
  33 H33           -2.9489    -1.5377    -0.4904 H       
  34 H34            1.5176     3.9767     0.9118 H       
  35 H35           -2.2827    -0.7501     2.1388 H       
  36 H36           -4.8491    -0.3335    -0.3788 H       
  37 H37           -7.2204     0.0428     0.1387 H       
  38 H38           -7.6361     0.0971     4.7523 H       
  39 H39           -3.6339    -0.5463     6.0922 H       
  40 H40           -4.3571     0.4658     7.7704 H       
  41 H41           -5.5769    -0.2433     8.8556 H       
  42 H42           -4.6383    -1.2918     7.7657 H       
  43 H43           -1.0303     3.3375    -0.6164 H       
  44 H44           -0.8134     4.3683     0.8372 H       
  45 H45           -0.8713     7.1318    -1.9251 H       
  46 H46           -2.1717     5.9465    -1.6565 H       
  47 H47           -1.5012     6.8586    -0.2829 H       
@<TRIPOS>BOND
   1    1    2 1
   2    1    3 2
   3    2    6 1
   4    2    9 1
   5    3    4 1
   6    3   11 1
   7    4    5 2
   8    4   30 1
   9    5    6 1
  10    5   31 1
  11    6    7 2
  12    7    8 1
  13    8    9 2
  14    9   10 1
  15   10   12 1
  16   10   32 1
  17   10   33 1
  18   11   25 1
  19   11   28 1
  20   11   34 1
  21   12   13 1
  22   12   35 1
  23   13   14 ar
  24   13   18 ar
  25   14   15 ar
  26   14   36 1
  27   15   16 ar
  28   15   37 1
  29   16   17 ar
  30   17   18 ar
  31   17   19 ar
  32   18   22 ar
  33   19   20 ar
  34   19   38 1
  35   20   21 ar
  36   20   23 1
  37   21   22 ar
  38   21   39 1
  39   23   24 1
  40   24   40 1
  41   24   41 1
  42   24   42 1
  43   25   26 1
  44   26   27 2
  45   27   28 1
  46   27   29 1
  47   28   43 1
  48   28   44 1
  49   29   45 1
  50   29   46 1
  51   29   47 1

#	End of record

