#	Name: ASD04591067
#	Creating user name:	WinNT
#	Creation time:	15. 06. 2019 20:52

#	Modifying user name:	WinNT
#	Modification time:	15. 06. 2019 20:52

#	Program:	/corina/corina34_cracker 3.40 0067  02.08.2006

@<TRIPOS>MOLECULE
ASD04591067
  69   74    0    0    0
SMALL
NO_CHARGES


@<TRIPOS>ATOM
   1 N1            -2.3227    -2.6269     0.1857 N.ar    
   2 C2            -1.1621    -1.9838     0.1841 C.ar    
   3 N3            -0.0015    -2.6192     0.1789 N.ar    
   4 C4             0.0427    -3.9481     0.1757 C.ar    
   5 C5            -1.1734    -4.6607     0.1778 C.ar    
   6 C6            -2.3688    -3.9489     0.1827 C.ar    
   7 N7             1.0754    -4.8527     0.1703 N.pl3   
   8 C8             0.5847    -6.1470     0.1688 C.ar    
   9 C9            -0.8203    -6.0861     0.1733 C.ar    
  10 C10            1.1932    -7.3954     0.1635 C.ar    
  11 N11            0.4674    -8.4948     0.1624 N.ar    
  12 C12           -0.8538    -8.4722     0.1665 C.ar    
  13 C13           -1.5434    -7.2783     0.1731 C.ar    
  14 N14           -1.1657    -0.5988     0.1873 N.pl3   
  15 C15           -2.3702     0.0960     0.0733 C.ar    
  16 N16           -3.4968    -0.5619    -0.1441 N.ar    
  17 N17           -4.6271     0.0359    -0.2557 N.ar    
  18 C18           -4.7412     1.3506    -0.1609 C.ar    
  19 C19           -3.6071     2.1316     0.0679 C.ar    
  20 C20           -2.3897     1.4863     0.1939 C.ar    
  21 N21           -5.9902     1.9541    -0.2896 N.3     
  22 C22            2.4968    -4.4980     0.1663 C.3     
  23 C23           -6.2996     2.7792     0.8851 C.3     
  24 C24            2.8289    -3.6660    -1.0848 C.3     
  25 C25            3.3458    -2.3020    -0.5825 C.3     
  26 C26            3.8623    -2.5950     0.8481 C.3     
  27 C27            2.8235    -3.6107     1.3852 C.3     
  28 C28           -7.0372     0.9518    -0.5251 C.3     
  29 C29           -8.3663     1.6567    -0.8056 C.3     
  30 C30           -8.7352     2.5355     0.3929 C.3     
  31 C31           -7.6066     3.5387     0.6467 C.3     
  32 N32           -9.9805     3.2598     0.1057 N.3     
  33 C33          -11.1525     2.4067     0.3435 C.3     
  34 C34          -12.2940     2.8398    -0.5787 C.3     
  35 O35          -12.7118     4.1614    -0.2312 O.3     
  36 C36          -11.5952     2.5430     1.8017 C.3     
  37 H37           -3.3169    -4.4662     0.1841 H       
  38 H38            2.2710    -7.4655     0.1600 H       
  39 H39           -1.4017    -9.4029     0.1653 H       
  40 H40           -2.6234    -7.2668     0.1765 H       
  41 H41           -0.3307    -0.1118     0.2690 H       
  42 H42           -3.6784     3.2062     0.1482 H       
  43 H43           -1.4810     2.0423     0.3716 H       
  44 H44            3.1068    -5.4011     0.1867 H       
  45 H45           -6.4061     2.1389     1.7607 H       
  46 H46           -5.4911     3.4910     1.0520 H       
  47 H47            3.6007    -4.1649    -1.6710 H       
  48 H48            1.9325    -3.5260    -1.6889 H       
  49 H49            4.1581    -1.9452    -1.2157 H       
  50 H50            2.5352    -1.5739    -0.5538 H       
  51 H51            4.8568    -3.0399     0.8162 H       
  52 H52            3.8631    -1.6875     1.4519 H       
  53 H53            1.9286    -3.0939     1.7316 H       
  54 H54            3.2547    -4.2089     2.1879 H       
  55 H55           -6.7646     0.3364    -1.3825 H       
  56 H56           -7.1403     0.3201     0.3571 H       
  57 H57           -8.2680     2.2780    -1.6958 H       
  58 H58           -9.1465     0.9124    -0.9649 H       
  59 H59           -8.8717     1.9099     1.2750 H       
  60 H60           -7.8440     4.1390     1.5250 H       
  61 H61           -7.4964     4.1896    -0.2206 H       
  62 H62          -10.0369     4.1103     0.6456 H       
  63 H63          -10.8936     1.3680     0.1380 H       
  64 H64          -11.9502     2.8275    -1.6129 H       
  65 H65          -13.1325     2.1524    -0.4664 H       
  66 H66          -13.4345     4.5015    -0.7762 H       
  67 H67          -12.4100     1.8469     2.0006 H       
  68 H68          -10.7555     2.3170     2.4589 H       
  69 H69          -11.9354     3.5624     1.9843 H       
@<TRIPOS>BOND
   1    1    2 ar
   2    1    6 ar
   3    2    3 ar
   4    2   14 1
   5    3    4 ar
   6    4    5 ar
   7    4    7 1
   8    5    6 ar
   9    5    9 1
  10    6   37 1
  11    7    8 1
  12    7   22 1
  13    8    9 ar
  14    8   10 ar
  15    9   13 ar
  16   10   11 ar
  17   10   38 1
  18   11   12 ar
  19   12   13 ar
  20   12   39 1
  21   13   40 1
  22   14   15 1
  23   14   41 1
  24   15   16 ar
  25   15   20 ar
  26   16   17 ar
  27   17   18 ar
  28   18   19 ar
  29   18   21 1
  30   19   20 ar
  31   19   42 1
  32   20   43 1
  33   21   28 1
  34   21   23 1
  35   22   24 1
  36   22   27 1
  37   22   44 1
  38   23   31 1
  39   23   45 1
  40   23   46 1
  41   24   25 1
  42   24   47 1
  43   24   48 1
  44   25   26 1
  45   25   49 1
  46   25   50 1
  47   26   27 1
  48   26   51 1
  49   26   52 1
  50   27   53 1
  51   27   54 1
  52   28   29 1
  53   28   55 1
  54   28   56 1
  55   29   30 1
  56   29   57 1
  57   29   58 1
  58   30   31 1
  59   30   32 1
  60   30   59 1
  61   31   60 1
  62   31   61 1
  63   32   33 1
  64   32   62 1
  65   33   34 1
  66   33   36 1
  67   33   63 1
  68   34   35 1
  69   34   64 1
  70   34   65 1
  71   35   66 1
  72   36   67 1
  73   36   68 1
  74   36   69 1

#	End of record

