#	Name: ASD03092501
#	Creating user name:	WinNT
#	Creation time:	15. 06. 2019 20:32

#	Modifying user name:	WinNT
#	Modification time:	15. 06. 2019 20:32

#	Program:	/corina/corina34_cracker 3.40 0067  02.08.2006

@<TRIPOS>MOLECULE
ASD03092501
  56   59    0    0    0
SMALL
NO_CHARGES


@<TRIPOS>ATOM
   1 C1             0.3377     2.0151     0.1445 C.2     
   2 C2             0.5539     0.5259     0.2242 C.3     
   3 C3             2.0546     0.2275     0.2208 C.3     
   4 O4             1.2900     2.7641     0.0903 O.2     
   5 N5            -0.9141     2.5144     0.1279 N.am    
   6 C6            -0.0700    -0.0118     1.5136 C.3     
   7 C7            -1.1243     3.9621     0.0503 C.3     
   8 S8            -4.9831     4.7577    -0.6387 S.3     
   9 C9            -4.5797     4.6090     1.0158 C.2     
  10 N10           -3.3133     4.3514     1.1495 N.2     
  11 C11           -2.6025     4.2556     0.0469 C.2     
  12 C12           -3.3088     4.4431    -1.0876 C.2     
  13 C13           -7.7862     5.1291     2.7624 C.3     
  14 C14           -6.8269     5.0337     1.5657 C.3     
  15 N15           -5.4735     4.7440     2.0625 N.3     
  16 C16           -5.4652     3.5494     2.9199 C.3     
  17 C17           -6.5044     3.7320     4.0372 C.3     
  18 C18           -6.2777     5.1243     4.6727 C.3     
  19 C19           -7.1449     6.0694     3.8104 C.3     
  20 O20           -7.8017     3.8335     3.4054 O.3     
  21 C21           -2.5480     5.3151    -4.6604 C.ar    
  22 C22           -3.0699     5.4020    -3.3880 C.ar    
  23 C23           -2.7732     4.3929    -2.4620 C.ar    
  24 C24           -1.9534     3.3351    -2.8774 C.ar    
  25 C25           -1.4751     3.3289    -4.1698 C.ar    
  26 N26           -1.7794     4.3004    -5.0103 N.ar    
  27 C27           -0.5920     2.1977    -4.6298 C.3     
  28 C28           -2.8640     6.3901    -5.6682 C.3     
  29 H29            0.0858     0.0443    -0.6343 H       
  30 H30            2.5227     0.7091     1.0793 H       
  31 H31            2.2110    -0.8497     0.2785 H       
  32 H32            2.4991     0.6105    -0.6978 H       
  33 H33           -1.6758     1.9151     0.1672 H       
  34 H34           -1.1390     0.2008     1.5161 H       
  35 H35            0.0864    -1.0890     1.5713 H       
  36 H36            0.3982     0.4698     2.3721 H       
  37 H37           -0.6604     4.4433     0.9114 H       
  38 H38           -0.6756     4.3459    -0.8659 H       
  39 H39           -8.7804     5.4625     2.4648 H       
  40 H40           -7.1509     4.2330     0.9009 H       
  41 H41           -6.8224     5.9801     1.0249 H       
  42 H42           -5.7186     2.6716     2.3255 H       
  43 H43           -4.4757     3.4219     3.3589 H       
  44 H44           -6.4578     2.9309     4.7748 H       
  45 H45           -6.6171     5.1321     5.7085 H       
  46 H46           -5.2267     5.4066     4.6111 H       
  47 H47           -6.5233     6.8198     3.3218 H       
  48 H48           -7.9138     6.5452     4.4191 H       
  49 H49           -3.6976     6.2353    -3.1086 H       
  50 H50           -1.7001     2.5372    -2.1952 H       
  51 H51           -1.2090     1.4010    -5.0454 H       
  52 H52            0.0954     2.5609    -5.3938 H       
  53 H53           -0.0236     1.8129    -3.7830 H       
  54 H54           -2.1123     7.1771    -5.6076 H       
  55 H55           -2.8608     5.9610    -6.6701 H       
  56 H56           -3.8473     6.8096    -5.4556 H       
@<TRIPOS>BOND
   1    1    2 1
   2    1    4 2
   3    1    5 am
   4    2    3 1
   5    2    6 1
   6    2   29 1
   7    3   30 1
   8    3   31 1
   9    3   32 1
  10    5    7 1
  11    5   33 1
  12    6   34 1
  13    6   35 1
  14    6   36 1
  15    7   11 1
  16    7   37 1
  17    7   38 1
  18    8    9 1
  19    8   12 1
  20    9   10 2
  21    9   15 1
  22   10   11 1
  23   11   12 2
  24   12   23 1
  25   13   14 1
  26   13   19 1
  27   13   20 1
  28   13   39 1
  29   14   15 1
  30   14   40 1
  31   14   41 1
  32   15   16 1
  33   16   17 1
  34   16   42 1
  35   16   43 1
  36   17   18 1
  37   17   20 1
  38   17   44 1
  39   18   19 1
  40   18   45 1
  41   18   46 1
  42   19   47 1
  43   19   48 1
  44   21   22 ar
  45   21   26 ar
  46   21   28 1
  47   22   23 ar
  48   22   49 1
  49   23   24 ar
  50   24   25 ar
  51   24   50 1
  52   25   26 ar
  53   25   27 1
  54   27   51 1
  55   27   52 1
  56   27   53 1
  57   28   54 1
  58   28   55 1
  59   28   56 1

#	End of record

