#	Name: ASD01918560
#	Creating user name:	WinNT
#	Creation time:	15. 06. 2019 20:11

#	Modifying user name:	WinNT
#	Modification time:	15. 06. 2019 20:11

#	Program:	/corina/corina34_cracker 3.40 0067  02.08.2006

@<TRIPOS>MOLECULE
ASD01918560
  50   51    0    0    0
SMALL
NO_CHARGES


@<TRIPOS>ATOM
   1 Cl1            0.0000     0.0000     0.0000 Cl      
   2 H2             0.0000     1.3700     0.0000 H       
   3 C3             8.8589    16.3243     6.2274 C.3     
   4 C4             8.6880    14.8331     6.3613 C.ar    
   5 C5             9.4294    14.1439     7.3026 C.ar    
   6 C6             9.2671    12.7732     7.4208 C.ar    
   7 C7             8.3557    12.1400     6.5793 C.ar    
   8 N8             8.1563    10.7588     6.6606 N.pl3   
   9 C9             8.2763    10.1095     7.8853 C.ar    
  10 N10            8.4653    10.8177     8.9877 N.ar    
  11 C11            8.5837    10.2413    10.1690 C.ar    
  12 C12            8.5143     8.8688    10.2976 C.ar    
  13 C13            8.3170     8.0883     9.1659 C.ar    
  14 C14            8.1910     8.7208     7.9415 C.ar    
  15 Cl15           7.9361     7.7955     6.4949 Cl      
  16 C16            8.6517     8.2235    11.6526 C.3     
  17 H17            8.2292     7.2192    11.6212 H       
  18 C18           10.1319     8.1426    12.0311 C.3     
  19 C19           10.2805     7.3769    13.3474 C.3     
  20 C20           11.7385     7.2971    13.7203 C.2     
  21 C21           12.1395     7.7259    14.8914 C.2     
  22 N22            7.9358     9.0236    12.6493 N.am    
  23 C23            7.4822     8.4447    13.7787 C.2     
  24 O24            7.6672     7.2580    13.9704 O.2     
  25 C25            6.7626     9.2489    14.7806 C.2     
  26 N26            6.4999    10.5241    14.6838 N.2     
  27 C27            5.8479    11.0506    15.6868 C.2     
  28 C28            5.5342    10.2099    16.6851 C.2     
  29 S29            6.1098     8.6454    16.3007 S.3     
  30 C30            7.6475    12.9015     5.6580 C.ar    
  31 N31            7.8290    14.2046     5.5823 N.ar    
  32 H32            8.1599    16.8313     6.8925 H       
  33 H33            9.8793    16.5985     6.4954 H       
  34 H34            8.6614    16.6217     5.1975 H       
  35 H35           10.1276    14.6681     7.9384 H       
  36 H36            9.8335    12.2095     8.1474 H       
  37 H37            7.9342    10.2531     5.8632 H       
  38 H38            8.7374    10.8516    11.0466 H       
  39 H39            8.2594     7.0124     9.2402 H       
  40 H40           10.6801     7.6235    11.2449 H       
  41 H41           10.5323     9.1494    12.1493 H       
  42 H42            9.7323     7.8960    14.1336 H       
  43 H43            9.8801     6.3700    13.2292 H       
  44 H44           12.4528     6.8864    13.0220 H       
  45 H45           11.4252     8.1366    15.5896 H       
  46 H46           13.1843     7.6688    15.1586 H       
  47 H47            7.7882     9.9701    12.4964 H       
  48 H48            5.5789    12.0963    15.7110 H       
  49 H49            5.0000    10.4773    17.5848 H       
  50 H50            6.9383    12.4214     5.0000 H       
@<TRIPOS>BOND
   1    1    2 1
   2    3    4 1
   3    3   32 1
   4    3   33 1
   5    3   34 1
   6    4   31 ar
   7    4    5 ar
   8    5    6 ar
   9    5   35 1
  10    6    7 ar
  11    6   36 1
  12    7    8 1
  13    7   30 ar
  14    8    9 1
  15    8   37 1
  16    9   14 ar
  17    9   10 ar
  18   10   11 ar
  19   11   12 ar
  20   11   38 1
  21   12   13 ar
  22   12   16 1
  23   13   14 ar
  24   13   39 1
  25   14   15 1
  26   16   17 1
  27   16   18 1
  28   16   22 1
  29   18   19 1
  30   18   40 1
  31   18   41 1
  32   19   20 1
  33   19   42 1
  34   19   43 1
  35   20   21 2
  36   20   44 1
  37   21   45 1
  38   21   46 1
  39   22   23 am
  40   22   47 1
  41   23   24 2
  42   23   25 1
  43   25   29 1
  44   25   26 2
  45   26   27 1
  46   27   28 2
  47   27   48 1
  48   28   29 1
  49   28   49 1
  50   30   31 ar
  51   30   50 1

#	End of record

