#	Name: ASD03200042
#	Creating user name:	WinNT
#	Creation time:	15. 06. 2019 20:34

#	Modifying user name:	WinNT
#	Modification time:	15. 06. 2019 20:34

#	Program:	/corina/corina34_cracker 3.40 0067  02.08.2006

@<TRIPOS>MOLECULE
ASD03200042
  50   53    0    0    0
SMALL
NO_CHARGES


@<TRIPOS>ATOM
   1 C1             0.9609    -1.0183    -0.1640 C.3     
   2 N2            -0.0398     0.0451    -0.0078 N.3     
   3 C3             0.2892     0.9218     1.1233 C.3     
   4 C4             1.6358     1.6027     0.8678 C.3     
   5 C5             2.7181     0.5335     0.6950 C.3     
   6 C6             2.3275    -0.3953    -0.4579 C.3     
   7 C7            -1.3197    -0.4898     0.1305 C.ar    
   8 C8            -2.0255    -0.3556     1.3235 C.ar    
   9 C9            -3.2906    -0.8989     1.4208 C.ar    
  10 N10           -3.8348    -1.5393     0.4035 N.ar    
  11 C11           -3.2029    -1.6906    -0.7454 C.ar    
  12 C12           -1.9321    -1.1712    -0.9282 C.ar    
  13 N13           -1.2654    -1.3344    -2.1500 N.am    
  14 C14           -1.4485    -2.4571    -2.8729 C.2     
  15 C15           -0.8526    -2.5753    -4.2060 C.2     
  16 O16           -2.1092    -3.3731    -2.4180 O.2     
  17 C17           -1.0869    -3.6503    -5.0350 C.2     
  18 S18           -0.1864    -3.3938    -6.5275 S.3     
  19 C19            0.4255    -1.8651    -5.9063 C.2     
  20 N20           -0.0432    -1.6486    -4.7196 N.2     
  21 C21            1.3369    -0.9584    -6.6355 C.ar    
  22 N22            1.9744     2.4635     2.0090 N.3     
  23 N23           -1.8865    -4.7379    -4.7467 N.pl3   
  24 C24            1.6943    -1.2369    -7.9579 C.ar    
  25 C25            2.5465    -0.3848    -8.6341 C.ar    
  26 C26            3.0455     0.7415    -8.0053 C.ar    
  27 C27            2.6952     1.0233    -6.6948 C.ar    
  28 C28            1.8397     0.1823    -6.0089 C.ar    
  29 F29            1.2080    -2.3369    -8.5733 F       
  30 F30            3.1870     2.1255    -6.0878 F       
  31 H31            1.0177    -1.6014     0.7551 H       
  32 H32            0.6733    -1.6691    -0.9897 H       
  33 H33           -0.4862     1.6800     1.2326 H       
  34 H34            0.3492     0.3296     2.0364 H       
  35 H35            1.5724     2.2061    -0.0377 H       
  36 H36            3.6709     1.0128     0.4698 H       
  37 H37            2.8087    -0.0451     1.6143 H       
  38 H38            3.0730    -1.1841    -0.5583 H       
  39 H39            2.2750     0.1767    -1.3843 H       
  40 H40           -1.5885     0.1665     2.1618 H       
  41 H41           -3.8431    -0.7986     2.3434 H       
  42 H42           -3.6838    -2.2220    -1.5533 H       
  43 H43           -0.6722    -0.6394    -2.4755 H       
  44 H44            2.8602     2.9244     1.8640 H       
  45 H45            1.2421     3.1347     2.1856 H       
  46 H46           -2.3444    -4.7906    -3.8932 H       
  47 H47           -1.9906    -5.4495    -5.3976 H       
  48 H48            2.8237    -0.5990    -9.6557 H       
  49 H49            3.7115     1.4041    -8.5382 H       
  50 H50            1.5671     0.4033    -4.9875 H       
@<TRIPOS>BOND
   1    1    2 1
   2    1    6 1
   3    1   31 1
   4    1   32 1
   5    2    3 1
   6    2    7 1
   7    3    4 1
   8    3   33 1
   9    3   34 1
  10    4    5 1
  11    4   22 1
  12    4   35 1
  13    5    6 1
  14    5   36 1
  15    5   37 1
  16    6   38 1
  17    6   39 1
  18    7    8 ar
  19    7   12 ar
  20    8    9 ar
  21    8   40 1
  22    9   10 ar
  23    9   41 1
  24   10   11 ar
  25   11   12 ar
  26   11   42 1
  27   12   13 1
  28   13   14 am
  29   13   43 1
  30   14   15 1
  31   14   16 2
  32   15   17 2
  33   15   20 1
  34   17   18 1
  35   17   23 1
  36   18   19 1
  37   19   20 2
  38   19   21 1
  39   21   24 ar
  40   21   28 ar
  41   22   44 1
  42   22   45 1
  43   23   46 1
  44   23   47 1
  45   24   25 ar
  46   24   29 1
  47   25   26 ar
  48   25   48 1
  49   26   27 ar
  50   26   49 1
  51   27   28 ar
  52   27   30 1
  53   28   50 1

#	End of record

