#	Name: ASD01940329
#	Creating user name:	WinNT
#	Creation time:	15. 06. 2019 20:12

#	Modifying user name:	WinNT
#	Modification time:	15. 06. 2019 20:12

#	Program:	/corina/corina34_cracker 3.40 0067  02.08.2006

@<TRIPOS>MOLECULE
ASD01940329
  51   54    0    0    0
SMALL
NO_CHARGES


@<TRIPOS>ATOM
   1 C1             0.5767     3.5751     0.9189 C.ar    
   2 C2             0.7016     3.1331     2.2238 C.ar    
   3 C3             1.8267     2.4293     2.6144 C.ar    
   4 C4             2.8300     2.1652     1.7025 C.ar    
   5 C5             2.7091     2.6063     0.3915 C.ar    
   6 C6             1.5771     3.3138     0.0007 C.ar    
   7 N7             3.7239     2.3407    -0.5340 N.pl3   
   8 C8             4.8094     1.5523    -0.1683 C.ar    
   9 C9             4.7347     0.1685    -0.2738 C.ar    
  10 C10            5.8173    -0.6129     0.0911 C.ar    
  11 C11            6.9819    -0.0221     0.5631 C.ar    
  12 C12            7.0716     1.3473     0.6735 C.ar    
  13 C13            5.9888     2.1505     0.3039 C.ar    
  14 C14            6.0825     3.6166     0.4145 C.2     
  15 N15            7.2641     4.1963     0.7049 N.am    
  16 O16            5.0936     4.3037     0.2439 O.2     
  17 C17            7.7294     5.5582     1.0073 C.3     
  18 C18            9.1011     5.1554     0.4486 C.3     
  19 C19            8.6543     3.7443     0.8650 C.3     
  20 O20            9.2362     5.3394    -0.9621 O.3     
  21 C21           10.2878     5.6962     1.2487 C.3     
  22 N22           11.5411     5.2507     0.6265 N.3     
  23 C23           12.7070     5.7148     1.3893 C.3     
  24 C24           12.7304     7.2449     1.4071 C.3     
  25 C25           11.4392     7.7628     2.0468 C.3     
  26 C26           10.2390     7.2257     1.2623 C.3     
  27 F27            3.6052    -0.4139    -0.7322 F       
  28 F28            5.7404    -1.9578    -0.0121 F       
  29 F29            1.4553     3.7454    -1.2737 F       
  30 I30           -0.8163     3.5311     3.6118 I       
  31 H31           -0.3047     4.1208     0.6160 H       
  32 H32            1.9209     2.0861     3.6341 H       
  33 H33            3.7081     1.6162     2.0091 H       
  34 H34            3.6703     2.7064    -1.4308 H       
  35 H35            7.8214    -0.6400     0.8454 H       
  36 H36            7.9798     1.8011     1.0419 H       
  37 H37            7.2302     6.3282     0.4191 H       
  38 H38            7.7445     5.7850     2.0734 H       
  39 H39            8.9133     3.4929     1.8936 H       
  40 H40            8.9432     2.9689     0.1555 H       
  41 H41            8.5167     4.9529    -1.4798 H       
  42 H42           10.2371     5.3222     2.2713 H       
  43 H43           11.5551     4.2475     0.5194 H       
  44 H44           12.6448     5.3406     2.4111 H       
  45 H45           13.6186     5.3431     0.9214 H       
  46 H46           13.5871     7.5890     1.9865 H       
  47 H47           12.8065     7.6196     0.3864 H       
  48 H48           11.3818     7.4204     3.0801 H       
  49 H49           11.4323     8.8525     2.0224 H       
  50 H50           10.2759     7.6001     0.2393 H       
  51 H51            9.3158     7.5561     1.7383 H       
@<TRIPOS>BOND
   1    1    2 ar
   2    1    6 ar
   3    1   31 1
   4    2    3 ar
   5    2   30 1
   6    3    4 ar
   7    3   32 1
   8    4    5 ar
   9    4   33 1
  10    5    6 ar
  11    5    7 1
  12    6   29 1
  13    7    8 1
  14    7   34 1
  15    8    9 ar
  16    8   13 ar
  17    9   10 ar
  18    9   27 1
  19   10   11 ar
  20   10   28 1
  21   11   12 ar
  22   11   35 1
  23   12   13 ar
  24   12   36 1
  25   13   14 1
  26   14   15 am
  27   14   16 2
  28   15   17 1
  29   15   19 1
  30   17   18 1
  31   17   37 1
  32   17   38 1
  33   18   19 1
  34   18   20 1
  35   18   21 1
  36   19   39 1
  37   19   40 1
  38   20   41 1
  39   21   22 1
  40   21   26 1
  41   21   42 1
  42   22   23 1
  43   22   43 1
  44   23   24 1
  45   23   44 1
  46   23   45 1
  47   24   25 1
  48   24   46 1
  49   24   47 1
  50   25   26 1
  51   25   48 1
  52   25   49 1
  53   26   50 1
  54   26   51 1

#	End of record

