#	Name: ASD03200044
#	Creating user name:	WinNT
#	Creation time:	15. 06. 2019 20:34

#	Modifying user name:	WinNT
#	Modification time:	15. 06. 2019 20:34

#	Program:	/corina/corina34_cracker 3.40 0067  02.08.2006

@<TRIPOS>MOLECULE
ASD03200044
  50   53    0    0    0
SMALL
NO_CHARGES


@<TRIPOS>ATOM
   1 C1             0.9607    -1.0180    -0.1640 C.3     
   2 N2            -0.0400     0.0453    -0.0079 N.3     
   3 C3             0.2889     0.9221     1.1232 C.3     
   4 C4             1.6354     1.6031     0.8677 C.3     
   5 C5             2.7178     0.5340     0.6950 C.3     
   6 C6             2.3273    -0.3949    -0.4579 C.3     
   7 C7            -1.3199    -0.4897     0.1304 C.ar    
   8 C8            -2.0258    -0.3555     1.3234 C.ar    
   9 C9            -3.2906    -0.8993     1.4209 C.ar    
  10 N10           -3.8345    -1.5402     0.4037 N.ar    
  11 C11           -3.2026    -1.6915    -0.7452 C.ar    
  12 C12           -1.9322    -1.1712    -0.9282 C.ar    
  13 N13           -1.2656    -1.3341    -2.1502 N.am    
  14 C14           -1.4481    -2.4570    -2.8729 C.2     
  15 C15           -0.8523    -2.5749    -4.2061 C.2     
  16 O16           -2.1080    -3.3734    -2.4177 O.2     
  17 C17           -1.0860    -3.6502    -5.0349 C.2     
  18 S18           -0.1856    -3.3934    -6.5274 S.3     
  19 C19            0.4254    -1.8643    -5.9064 C.2     
  20 N20           -0.0436    -1.6477    -4.7200 N.2     
  21 C21            1.3367    -0.9573    -6.6357 C.ar    
  22 N22            1.9739     2.4639     2.0089 N.3     
  23 N23           -1.8851    -4.7382    -4.7465 N.pl3   
  24 C24            1.6944    -1.2359    -7.9574 C.ar    
  25 C25            2.5479    -0.3813    -8.6333 C.ar    
  26 C26            3.0453     0.7462    -8.0009 C.ar    
  27 C27            2.6935     1.0246    -6.6923 C.ar    
  28 C28            1.8390     0.1840    -6.0090 C.ar    
  29 F29            1.2092    -2.3361    -8.5734 F       
  30 F30            2.8966    -0.6473    -9.9111 F       
  31 H31            1.0175    -1.6011     0.7552 H       
  32 H32            0.6732    -1.6689    -0.9897 H       
  33 H33           -0.4866     1.6803     1.2324 H       
  34 H34            0.3488     0.3300     2.0363 H       
  35 H35            1.5720     2.2065    -0.0378 H       
  36 H36            3.6705     1.0133     0.4698 H       
  37 H37            2.8084    -0.0446     1.6143 H       
  38 H38            3.0729    -1.1837    -0.5582 H       
  39 H39            2.2748     0.1770    -1.3843 H       
  40 H40           -1.5890     0.1670     2.1616 H       
  41 H41           -3.8431    -0.7990     2.3434 H       
  42 H42           -3.6835    -2.2230    -1.5530 H       
  43 H43           -0.6729    -0.6387    -2.4758 H       
  44 H44            2.8596     2.9250     1.8638 H       
  45 H45            1.2415     3.1351     2.1854 H       
  46 H46           -2.3430    -4.7910    -3.8930 H       
  47 H47           -1.9887    -5.4499    -5.3973 H       
  48 H48            3.7111     1.4106    -8.5316 H       
  49 H49            3.0854     1.9054    -6.2053 H       
  50 H50            1.5663     0.4042    -4.9875 H       
@<TRIPOS>BOND
   1    1    2 1
   2    1    6 1
   3    1   31 1
   4    1   32 1
   5    2    3 1
   6    2    7 1
   7    3    4 1
   8    3   33 1
   9    3   34 1
  10    4    5 1
  11    4   22 1
  12    4   35 1
  13    5    6 1
  14    5   36 1
  15    5   37 1
  16    6   38 1
  17    6   39 1
  18    7    8 ar
  19    7   12 ar
  20    8    9 ar
  21    8   40 1
  22    9   10 ar
  23    9   41 1
  24   10   11 ar
  25   11   12 ar
  26   11   42 1
  27   12   13 1
  28   13   14 am
  29   13   43 1
  30   14   15 1
  31   14   16 2
  32   15   17 2
  33   15   20 1
  34   17   18 1
  35   17   23 1
  36   18   19 1
  37   19   20 2
  38   19   21 1
  39   21   24 ar
  40   21   28 ar
  41   22   44 1
  42   22   45 1
  43   23   46 1
  44   23   47 1
  45   24   25 ar
  46   24   29 1
  47   25   26 ar
  48   25   30 1
  49   26   27 ar
  50   26   48 1
  51   27   28 ar
  52   27   49 1
  53   28   50 1

#	End of record

