#	Name: ASD06170065
#	Creating user name:	WinNT
#	Creation time:	15. 06. 2019 21:05

#	Modifying user name:	WinNT
#	Modification time:	15. 06. 2019 21:05

#	Program:	/corina/corina34_cracker 3.40 0067  02.08.2006

@<TRIPOS>MOLECULE
ASD06170065
  73   77    0    0    0
SMALL
NO_CHARGES


@<TRIPOS>ATOM
   1 N1             0.0333     1.5223    -0.3399 N.pl3   
   2 N2            -0.0076     0.1374    -0.1532 N.am    
   3 C3             1.2327    -0.2905     0.1611 C.2     
   4 C4             2.0963     0.9009     0.1700 C.2     
   5 C5             1.2871     1.9744    -0.1470 C.2     
   6 C6             3.5347     0.9408     0.4598 C.2     
   7 O7             4.1317     2.0009     0.4330 O.2     
   8 N8             4.1944    -0.1967     0.7557 N.am    
   9 C9            -1.1441    -0.6692    -0.2717 C.ar    
  10 C10           -2.0164    -0.4902    -1.3375 C.ar    
  11 C11           -3.1375    -1.2887    -1.4519 C.ar    
  12 C12           -3.3921    -2.2653    -0.5066 C.ar    
  13 C13           -2.5255    -2.4461     0.5558 C.ar    
  14 C14           -1.3996    -1.6547     0.6729 C.ar    
  15 O15            1.5707    -1.4365     0.3922 O.2     
  16 C16            1.7324     3.4097    -0.2589 C.3     
  17 C17           -1.1159     2.3571    -0.6986 C.3     
  18 C18           -1.7085     2.9800     0.5670 C.3     
  19 C19           -2.9087     3.8518     0.1925 C.3     
  20 C20           -4.0192     2.9707    -0.3831 C.3     
  21 C21           -3.4244     4.5727     1.4396 C.3     
  22 O22           -2.1313     1.9434     1.4551 O.3     
  23 C23            5.5901    -0.1877     0.8680 C.ar    
  24 C24            6.2488     0.9742     1.2492 C.ar    
  25 C25            7.6265     0.9820     1.3602 C.ar    
  26 C26            8.3514    -0.1727     1.0904 C.ar    
  27 C27            7.6928    -1.3320     0.7100 C.ar    
  28 C28            6.3154    -1.3417     0.6040 C.ar    
  29 O29            9.7069    -0.1654     1.1991 O.3     
  30 N30           11.3231    -0.1108     4.9931 N.ar    
  31 C31           10.0240    -0.0231     4.8276 C.ar    
  32 C32            9.4439    -0.0380     3.5657 C.ar    
  33 C33           10.2455    -0.1478     2.4429 C.ar    
  34 C34           11.6430    -0.2416     2.6329 C.ar    
  35 C35           12.5191    -0.3550     1.5435 C.ar    
  36 C36           13.8600    -0.4429     1.7590 C.ar    
  37 C37           14.3786    -0.4218     3.0570 C.ar    
  38 C38           13.5447    -0.3120     4.1467 C.ar    
  39 C39           12.1574    -0.2192     3.9523 C.ar    
  40 O40           15.7209    -0.5110     3.2451 O.3     
  41 C41           16.5339    -0.6234     2.0753 C.3     
  42 F42            8.2682     2.1117     1.7305 F       
  43 H43            3.7022    -1.0216     0.8908 H       
  44 H44           -1.8186     0.2728    -2.0758 H       
  45 H45           -3.8162    -1.1500    -2.2805 H       
  46 H46           -4.2698    -2.8879    -0.5979 H       
  47 H47           -2.7271    -3.2096     1.2925 H       
  48 H48           -0.7211    -1.7991     1.5006 H       
  49 H49            1.6354     3.8969     0.7114 H       
  50 H50            2.7736     3.4431    -0.5797 H       
  51 H51            1.1104     3.9272    -0.9891 H       
  52 H52           -0.7934     3.1478    -1.3760 H       
  53 H53           -1.8714     1.7437    -1.1896 H       
  54 H54           -0.9530     3.5934     1.0580 H       
  55 H55           -2.6052     4.5871    -0.5528 H       
  56 H56           -4.8743     3.5918    -0.6500 H       
  57 H57           -3.6518     2.4572    -1.2716 H       
  58 H58           -4.3227     2.2355     0.3621 H       
  59 H59           -2.6333     5.2004     1.8496 H       
  60 H60           -4.2795     5.1938     1.1727 H       
  61 H61           -3.7279     3.8374     2.1848 H       
  62 H62           -2.8047     1.3574     1.0833 H       
  63 H63            5.6848     1.8712     1.4583 H       
  64 H64            8.2565    -2.2290     0.5004 H       
  65 H65            5.8029    -2.2463     0.3115 H       
  66 H66            9.3886     0.0630     5.6967 H       
  67 H67            8.3715     0.0351     3.4612 H       
  68 H68           12.1306    -0.3727     0.5360 H       
  69 H69           14.5312    -0.5304     0.9175 H       
  70 H70           13.9553    -0.2973     5.1455 H       
  71 H71           17.5824    -0.6866     2.3662 H       
  72 H72           16.2550    -1.5214     1.5239 H       
  73 H73           16.3843     0.2521     1.4434 H       
@<TRIPOS>BOND
   1    1    2 1
   2    1    5 1
   3    1   17 1
   4    2    3 am
   5    2    9 1
   6    3    4 1
   7    3   15 2
   8    4    5 2
   9    4    6 1
  10    5   16 1
  11    6    7 2
  12    6    8 am
  13    8   23 1
  14    8   43 1
  15    9   10 ar
  16    9   14 ar
  17   10   11 ar
  18   10   44 1
  19   11   12 ar
  20   11   45 1
  21   12   13 ar
  22   12   46 1
  23   13   14 ar
  24   13   47 1
  25   14   48 1
  26   16   49 1
  27   16   50 1
  28   16   51 1
  29   17   18 1
  30   17   52 1
  31   17   53 1
  32   18   19 1
  33   18   22 1
  34   18   54 1
  35   19   20 1
  36   19   21 1
  37   19   55 1
  38   20   56 1
  39   20   57 1
  40   20   58 1
  41   21   59 1
  42   21   60 1
  43   21   61 1
  44   22   62 1
  45   23   24 ar
  46   23   28 ar
  47   24   25 ar
  48   24   63 1
  49   25   26 ar
  50   25   42 1
  51   26   27 ar
  52   26   29 1
  53   27   28 ar
  54   27   64 1
  55   28   65 1
  56   29   33 1
  57   30   31 ar
  58   30   39 ar
  59   31   32 ar
  60   31   66 1
  61   32   33 ar
  62   32   67 1
  63   33   34 ar
  64   34   35 ar
  65   34   39 ar
  66   35   36 ar
  67   35   68 1
  68   36   37 ar
  69   36   69 1
  70   37   38 ar
  71   37   40 1
  72   38   39 ar
  73   38   70 1
  74   40   41 1
  75   41   71 1
  76   41   72 1
  77   41   73 1

#	End of record

