#	Name: ASD01812052
#	Creating user name:	WinNT
#	Creation time:	15. 06. 2019 19:27

#	Modifying user name:	WinNT
#	Modification time:	15. 06. 2019 19:27

#	Program:	/corina/corina34_cracker 3.40 0067  02.08.2006

@<TRIPOS>MOLECULE
ASD01812052
  41   43    0    0    0
SMALL
NO_CHARGES


@<TRIPOS>ATOM
   1 C1            -0.0155     1.3837    -0.1248 C.ar    
   2 C2             0.0033    -0.0035    -0.1311 C.ar    
   3 C3             1.1985    -0.6918    -0.1014 C.ar    
   4 C4             2.4039     0.0085    -0.0650 C.ar    
   5 C5             2.3801     1.4131    -0.0593 C.ar    
   6 C6             1.1635     2.0949    -0.0891 C.ar    
   7 F7             1.2012    -2.0428    -0.1070 F       
   8 N8             3.6056    -0.6668    -0.0346 N.pl3   
   9 C9             4.7887    -0.0411     0.0012 C.2     
  10 C10            4.8927     1.3355     0.0103 C.2     
  11 C11            3.6619     2.1417    -0.0208 C.2     
  12 C12            3.5871    -2.1316    -0.0413 C.3     
  13 C13            3.4439    -2.6257    -1.4578 C.2     
  14 C14            4.3302    -3.4765    -1.9558 C.2     
  15 C15            4.1898    -3.9612    -3.3451 C.ar    
  16 O16            3.7001     3.3596    -0.0149 O.2     
  17 C17            6.2106     1.9850     0.0499 C.2     
  18 O18            6.2991     3.3301     0.0585 O.3     
  19 O19            7.2208     1.3091     0.0750 O.2     
  20 C20            5.1209    -4.8566    -3.8722 C.ar    
  21 C21            4.9841    -5.3052    -5.1700 C.ar    
  22 C22            3.9268    -4.8691    -5.9479 C.ar    
  23 C23            3.0003    -3.9807    -5.4312 C.ar    
  24 C24            3.1222    -3.5295    -4.1333 C.ar    
  25 C25            6.2737    -5.3325    -3.0262 C.3     
  26 H26           -0.9591     1.9085    -0.1525 H       
  27 H27           -0.9276    -0.5503    -0.1591 H       
  28 H28            1.1462     3.1747    -0.0850 H       
  29 H29            5.6917    -0.6330     0.0240 H       
  30 H30            4.5178    -2.5087     0.3827 H       
  31 H31            2.7462    -2.4871     0.5542 H       
  32 H32            2.6193    -2.2867    -2.0672 H       
  33 H33            5.1549    -3.8156    -1.3463 H       
  34 H34            7.1874     3.7114     0.0850 H       
  35 H35            5.7044    -5.9981    -5.5793 H       
  36 H36            3.8242    -5.2231    -6.9630 H       
  37 H37            2.1774    -3.6434    -6.0440 H       
  38 H38            2.3983    -2.8361    -3.7312 H       
  39 H39            5.9821    -6.2352    -2.4894 H       
  40 H40            7.1285    -5.5505    -3.6664 H       
  41 H41            6.5443    -4.5558    -2.3108 H       
@<TRIPOS>BOND
   1    1    2 ar
   2    1    6 ar
   3    1   26 1
   4    2    3 ar
   5    2   27 1
   6    3    4 ar
   7    3    7 1
   8    4    5 ar
   9    4    8 1
  10    5    6 ar
  11    5   11 1
  12    6   28 1
  13    8    9 1
  14    8   12 1
  15    9   10 2
  16    9   29 1
  17   10   11 1
  18   10   17 1
  19   11   16 2
  20   12   13 1
  21   12   30 1
  22   12   31 1
  23   13   14 2
  24   13   32 1
  25   14   15 1
  26   14   33 1
  27   15   20 ar
  28   15   24 ar
  29   17   18 1
  30   17   19 2
  31   18   34 1
  32   20   21 ar
  33   20   25 1
  34   21   22 ar
  35   21   35 1
  36   22   23 ar
  37   22   36 1
  38   23   24 ar
  39   23   37 1
  40   24   38 1
  41   25   39 1
  42   25   40 1
  43   25   41 1

#	End of record

