#	Name: ASD01885157
#	Creating user name:	WinNT
#	Creation time:	15. 06. 2019 19:49

#	Modifying user name:	WinNT
#	Modification time:	15. 06. 2019 19:49

#	Program:	/corina/corina34_cracker 3.40 0067  02.08.2006

@<TRIPOS>MOLECULE
ASD01885157
  53   57    0    0    0
SMALL
NO_CHARGES


@<TRIPOS>ATOM
   1 C1             0.1159     1.3615     0.5889 C.2     
   2 C2             1.0522    -0.5699    -0.4584 C.2     
   3 C3             2.2676     0.1246    -0.5842 C.2     
   4 C4             2.3796     1.3913    -0.1323 C.2     
   5 N5             1.3164     2.0145     0.4520 N.pl3   
   6 C6             1.1309     3.2512     0.9881 C.2     
   7 N7            -0.1048     3.3148     1.4123 N.2     
   8 N8            -0.7149     2.2064     1.1775 N.2     
   9 C9             2.1612     4.3473     1.0777 C.3     
  10 C10            0.9332    -1.9842    -0.9649 C.3     
  11 C11            2.0939     5.2146    -0.1810 C.3     
  12 C12            0.6104    -1.9649    -2.4604 C.3     
  13 C13           -0.0163     0.0395     0.1223 C.2     
  14 C14            2.9850     6.4573    -0.2310 C.3     
  15 C15            3.3245     5.2374    -1.0898 C.3     
  16 C16           -1.3262    -0.6918     0.2650 C.3     
  17 C17            1.8029    -1.3881    -3.2510 C.3     
  18 C18            1.8362    -2.2260    -4.5532 C.3     
  19 C19            1.4669    -3.6456    -4.0558 C.3     
  20 C20            0.3967    -3.4002    -2.9721 C.3     
  21 C21            0.8972    -4.4678    -5.1829 C.ar    
  22 C22            1.5035    -5.6556    -5.5470 C.ar    
  23 C23            0.9810    -6.4097    -6.5810 C.ar    
  24 C24           -0.1480    -5.9764    -7.2506 C.ar    
  25 C25           -0.7549    -4.7891    -6.8859 C.ar    
  26 C26           -0.2349    -4.0371    -5.8491 C.ar    
  27 F27           -1.2472    -1.5847     1.3391 F       
  28 F28           -2.3519     0.2302     0.4996 F       
  29 F29           -1.5956    -1.3998    -0.9112 F       
  30 H30            3.1168    -0.3583    -1.0448 H       
  31 H31            3.3184     1.9154    -0.2338 H       
  32 H32            1.9613     4.9632     1.9545 H       
  33 H33            3.1544     3.9062     1.1623 H       
  34 H34            1.8750    -2.5085    -0.8033 H       
  35 H35            0.1352    -2.4966    -0.4276 H       
  36 H36            1.1152     5.2775    -0.6567 H       
  37 H37           -0.2823    -1.3663    -2.6417 H       
  38 H38            2.5927     7.3377    -0.7401 H       
  39 H39            3.6192     6.6570     0.6327 H       
  40 H40            4.1821     4.6345    -0.7911 H       
  41 H41            3.1556     5.3152    -2.1638 H       
  42 H42            1.6362    -0.3353    -3.4789 H       
  43 H43            2.7294    -1.5161    -2.6912 H       
  44 H44            1.0964    -1.8618    -5.2659 H       
  45 H45            2.8339    -2.2180    -4.9923 H       
  46 H46            2.3391    -4.1382    -3.6260 H       
  47 H47            0.5230    -4.1106    -2.1551 H       
  48 H48           -0.5999    -3.4987    -3.4024 H       
  49 H49            2.3856    -5.9941    -5.0239 H       
  50 H50            1.4551    -7.3374    -6.8659 H       
  51 H51           -0.5558    -6.5653    -8.0589 H       
  52 H52           -1.6368    -4.4504    -7.4092 H       
  53 H53           -0.7111    -3.1113    -5.5617 H       
@<TRIPOS>BOND
   1    1   13 1
   2    1    5 1
   3    1    8 2
   4    2    3 1
   5    2   10 1
   6    2   13 2
   7    3    4 2
   8    3   30 1
   9    4    5 1
  10    4   31 1
  11    5    6 1
  12    6    7 2
  13    6    9 1
  14    7    8 1
  15    9   11 1
  16    9   32 1
  17    9   33 1
  18   10   12 1
  19   10   34 1
  20   10   35 1
  21   11   14 1
  22   11   15 1
  23   11   36 1
  24   12   17 1
  25   12   20 1
  26   12   37 1
  27   13   16 1
  28   14   15 1
  29   14   38 1
  30   14   39 1
  31   15   40 1
  32   15   41 1
  33   16   27 1
  34   16   28 1
  35   16   29 1
  36   17   18 1
  37   17   42 1
  38   17   43 1
  39   18   19 1
  40   18   44 1
  41   18   45 1
  42   19   20 1
  43   19   21 1
  44   19   46 1
  45   20   47 1
  46   20   48 1
  47   21   22 ar
  48   21   26 ar
  49   22   23 ar
  50   22   49 1
  51   23   24 ar
  52   23   50 1
  53   24   25 ar
  54   24   51 1
  55   25   26 ar
  56   25   52 1
  57   26   53 1

#	End of record

