#	Name: ASD01420046
#	Creating user name:	WinNT
#	Creation time:	15. 06. 2019 19:20

#	Modifying user name:	WinNT
#	Modification time:	15. 06. 2019 19:20

#	Program:	/corina/corina34_cracker 3.40 0067  02.08.2006

@<TRIPOS>MOLECULE
ASD01420046
  82   86    0    0    0
SMALL
NO_CHARGES


@<TRIPOS>ATOM
   1 C1             0.2468     1.5437     0.3550 C.2     
   2 O2             0.3403     0.5906     1.1047 O.2     
   3 C3             1.3189     2.9674    -1.4182 C.3     
   4 N4             1.3023     1.9169    -0.3955 N.am    
   5 C5             2.6538     1.3503    -0.3450 C.3     
   6 C6             3.4953     2.0802    -1.3613 C.ar    
   7 C7             4.8256     1.9368    -1.7136 C.ar    
   8 C8             5.3741     2.7443    -2.6981 C.ar    
   9 C9             4.5859     3.6961    -3.3289 C.ar    
  10 C10            3.2591     3.8357    -2.9743 C.ar    
  11 C11            2.7127     3.0283    -1.9906 C.ar    
  12 O12            6.6808     2.6041    -3.0441 O.3     
  13 C13            7.1777     3.4702    -4.0664 C.3     
  14 C14            8.6561     3.1669    -4.3177 C.3     
  15 N15            8.7911     1.8126    -4.8704 N.3     
  16 C16            8.3965     1.7796    -6.2851 C.3     
  17 C17           10.1584     1.3055    -4.6933 C.3     
  18 C18           -1.0218     2.2866     0.2628 C.ar    
  19 C19           -2.2413     1.5942     0.2089 C.ar    
  20 C20           -3.4287     2.3000     0.1229 C.ar    
  21 C21           -3.4113     3.6868     0.0896 C.ar    
  22 C22           -2.2030     4.3746     0.1430 C.ar    
  23 C23           -1.0162     3.6844     0.2345 C.ar    
  24 C24           -2.1944     5.8811     0.1063 C.3     
  25 C25           -1.5441     6.4187     1.3826 C.3     
  26 C26           -1.3989     6.3571    -1.1109 C.3     
  27 O27           -4.5777     4.3754     0.0043 O.3     
  28 C28           -5.7819     3.6078    -0.0473 C.3     
  29 C29           -6.9656     4.5360    -0.1396 C.ar    
  30 C30           -7.4385     4.9321    -1.3767 C.ar    
  31 C31           -8.5243     5.7835    -1.4613 C.ar    
  32 C32           -9.1374     6.2384    -0.3089 C.ar    
  33 C33           -8.6651     5.8415     0.9282 C.ar    
  34 C34           -7.5820     4.9866     1.0127 C.ar    
  35 O35           -2.2562     0.2381     0.2407 O.3     
  36 C36           -3.5344    -0.3982     0.1820 C.3     
  37 C37           -3.3536    -1.8936     0.2284 C.ar    
  38 C38           -3.3398    -2.5508     1.4445 C.ar    
  39 C39           -3.1740    -3.9225     1.4870 C.ar    
  40 C40           -3.0225    -4.6371     0.3135 C.ar    
  41 C41           -3.0372    -3.9800    -0.9026 C.ar    
  42 C42           -3.2073    -2.6089    -0.9454 C.ar    
  43 H43            0.6059     2.7266    -2.2068 H       
  44 H44            1.0625     3.9261    -0.9673 H       
  45 H45            3.0751     1.4879     0.6509 H       
  46 H46            2.6185     0.2884    -0.5886 H       
  47 H47            5.4373     1.1955    -1.2210 H       
  48 H48            5.0099     4.3271    -4.0960 H       
  49 H49            2.6455     4.5766    -3.4652 H       
  50 H50            6.6127     3.3100    -4.9847 H       
  51 H51            7.0684     4.5072    -3.7488 H       
  52 H52            9.0602     3.8903    -5.0259 H       
  53 H53            9.2052     3.2324    -3.3784 H       
  54 H54            9.0336     2.4551    -6.8558 H       
  55 H55            8.5059     0.7655    -6.6692 H       
  56 H56            7.3570     2.0938    -6.3797 H       
  57 H57           10.3702     1.1958    -3.6298 H       
  58 H58           10.2532     0.3371    -5.1846 H       
  59 H59           10.8661     2.0075    -5.1343 H       
  60 H60           -4.3693     1.7709     0.0812 H       
  61 H61           -0.0807     4.2220     0.2802 H       
  62 H62           -3.2183     6.2487     0.0376 H       
  63 H63           -0.5202     6.0511     1.4512 H       
  64 H64           -1.5379     7.5083     1.3560 H       
  65 H65           -2.1108     6.0796     2.2497 H       
  66 H66           -1.8623     5.9741    -2.0202 H       
  67 H67           -1.3927     7.4468    -1.1375 H       
  68 H68           -0.3751     5.9895    -1.0423 H       
  69 H69           -5.7611     2.9575    -0.9218 H       
  70 H70           -5.8652     3.0014     0.8546 H       
  71 H71           -6.9595     4.5767    -2.2770 H       
  72 H72           -8.8933     6.0936    -2.4278 H       
  73 H73           -9.9852     6.9041    -0.3750 H       
  74 H74           -9.1439     6.1971     1.8285 H       
  75 H75           -7.2153     4.6736     1.9791 H       
  76 H76           -4.1385    -0.0787     1.0311 H       
  77 H77           -4.0358    -0.1214    -0.7453 H       
  78 H78           -3.4583    -1.9924     2.3614 H       
  79 H79           -3.1625    -4.4358     2.4372 H       
  80 H80           -2.8922    -5.7087     0.3468 H       
  81 H81           -2.9184    -4.5383    -1.8195 H       
  82 H82           -3.2225    -2.0960    -1.8958 H       
@<TRIPOS>BOND
   1    1    2 2
   2    1    4 am
   3    1   18 1
   4    3    4 1
   5    3   11 1
   6    3   43 1
   7    3   44 1
   8    4    5 1
   9    5    6 1
  10    5   45 1
  11    5   46 1
  12    6    7 ar
  13    6   11 ar
  14    7    8 ar
  15    7   47 1
  16    8    9 ar
  17    8   12 1
  18    9   10 ar
  19    9   48 1
  20   10   11 ar
  21   10   49 1
  22   12   13 1
  23   13   14 1
  24   13   50 1
  25   13   51 1
  26   14   15 1
  27   14   52 1
  28   14   53 1
  29   15   16 1
  30   15   17 1
  31   16   54 1
  32   16   55 1
  33   16   56 1
  34   17   57 1
  35   17   58 1
  36   17   59 1
  37   18   19 ar
  38   18   23 ar
  39   19   20 ar
  40   19   35 1
  41   20   21 ar
  42   20   60 1
  43   21   22 ar
  44   21   27 1
  45   22   23 ar
  46   22   24 1
  47   23   61 1
  48   24   25 1
  49   24   26 1
  50   24   62 1
  51   25   63 1
  52   25   64 1
  53   25   65 1
  54   26   66 1
  55   26   67 1
  56   26   68 1
  57   27   28 1
  58   28   29 1
  59   28   69 1
  60   28   70 1
  61   29   30 ar
  62   29   34 ar
  63   30   31 ar
  64   30   71 1
  65   31   32 ar
  66   31   72 1
  67   32   33 ar
  68   32   73 1
  69   33   34 ar
  70   33   74 1
  71   34   75 1
  72   35   36 1
  73   36   37 1
  74   36   76 1
  75   36   77 1
  76   37   38 ar
  77   37   42 ar
  78   38   39 ar
  79   38   78 1
  80   39   40 ar
  81   39   79 1
  82   40   41 ar
  83   40   80 1
  84   41   42 ar
  85   41   81 1
  86   42   82 1

#	End of record

