#	Name: ASD01150912
#	Creating user name:	WinNT
#	Creation time:	15. 06. 2019 19:05

#	Modifying user name:	WinNT
#	Modification time:	15. 06. 2019 19:05

#	Program:	/corina/corina34_cracker 3.40 0067  02.08.2006

@<TRIPOS>MOLECULE
ASD01150912
  52   55    0    0    0
SMALL
NO_CHARGES


@<TRIPOS>ATOM
   1 C1            -0.0179     1.4714     0.0101 C.ar    
   2 C2             0.0021    -0.0041     0.0020 C.2     
   3 N3            -1.1558    -0.6938     0.0094 N.am    
   4 O4             1.0631    -0.5976    -0.0113 O.2     
   5 C5            -1.1370    -2.0836     0.0017 C.2     
   6 N6            -0.0478    -2.8559    -0.0124 N.2     
   7 C7            -0.3959    -4.1265    -0.0155 C.2     
   8 N8            -1.7505    -4.2220    -0.0034 N.pl3   
   9 C9            -2.2479    -2.9178     0.0135 C.2     
  10 C10           -3.6019    -2.5267     0.0308 C.2     
  11 O11           -4.5752    -3.4630     0.0323 O.3     
  12 O12           -3.8941    -1.3445     0.0444 O.2     
  13 C13           -5.9253    -2.9952     0.0503 C.3     
  14 C14           -6.8795    -4.1912     0.0492 C.3     
  15 S15            0.7214    -5.4888    -0.0329 S.3     
  16 C16            2.2990    -4.6014    -0.0423 C.3     
  17 C17           -2.5385    -5.4570    -0.0030 C.3     
  18 C18           -2.7960    -5.8882     1.4179 C.ar    
  19 C19           -3.9231    -5.4420     2.0821 C.ar    
  20 C20           -4.1592    -5.8375     3.3855 C.ar    
  21 C21           -3.2684    -6.6796     4.0244 C.ar    
  22 C22           -2.1416    -7.1265     3.3598 C.ar    
  23 C23           -1.9078    -6.7344     2.0550 C.ar    
  24 C24            1.1816     2.1882     0.0025 C.ar    
  25 C25            1.1585     3.5692     0.0097 C.ar    
  26 C26           -0.0617     4.2462     0.0247 C.ar    
  27 C27           -1.2530     3.5327     0.0326 C.ar    
  28 C28           -1.2363     2.1553     0.0196 C.ar    
  29 O29            2.1670     4.4897     0.0044 O.3     
  30 C30            1.5532     5.7288    -0.3965 C.3     
  31 O31            0.1852     5.5873     0.0292 O.3     
  32 H32           -2.0023    -0.2203     0.0200 H       
  33 H33           -6.0913    -2.3988     0.9474 H       
  34 H34           -6.1094    -2.3828    -0.8324 H       
  35 H35           -7.9094    -3.8344     0.0630 H       
  36 H36           -6.7136    -4.7876    -0.8479 H       
  37 H37           -6.6954    -4.8037     0.9319 H       
  38 H38            3.1194    -5.3190    -0.0536 H       
  39 H39            2.3557    -3.9707    -0.9295 H       
  40 H40            2.3717    -3.9802     0.8503 H       
  41 H41           -3.4888    -5.2817    -0.5073 H       
  42 H42           -1.9884    -6.2392    -0.5261 H       
  43 H43           -4.6191    -4.7841     1.5830 H       
  44 H44           -5.0395    -5.4884     3.9047 H       
  45 H45           -3.4524    -6.9880     5.0429 H       
  46 H46           -1.4455    -7.7841     3.8591 H       
  47 H47           -1.0275    -7.0836     1.5358 H       
  48 H48            2.1253     1.6632    -0.0086 H       
  49 H49           -2.1958     4.0594     0.0440 H       
  50 H50           -2.1650     1.6039     0.0258 H       
  51 H51            2.0260     6.5713     0.1083 H       
  52 H52            1.6069     5.8503    -1.4784 H       
@<TRIPOS>BOND
   1    1    2 1
   2    1   24 ar
   3    1   28 ar
   4    2    3 am
   5    2    4 2
   6    3    5 1
   7    3   32 1
   8    5    6 1
   9    5    9 2
  10    6    7 2
  11    7    8 1
  12    7   15 1
  13    8    9 1
  14    8   17 1
  15    9   10 1
  16   10   11 1
  17   10   12 2
  18   11   13 1
  19   13   14 1
  20   13   33 1
  21   13   34 1
  22   14   35 1
  23   14   36 1
  24   14   37 1
  25   15   16 1
  26   16   38 1
  27   16   39 1
  28   16   40 1
  29   17   18 1
  30   17   41 1
  31   17   42 1
  32   18   19 ar
  33   18   23 ar
  34   19   20 ar
  35   19   43 1
  36   20   21 ar
  37   20   44 1
  38   21   22 ar
  39   21   45 1
  40   22   23 ar
  41   22   46 1
  42   23   47 1
  43   24   25 ar
  44   24   48 1
  45   25   26 ar
  46   25   29 1
  47   26   27 ar
  48   26   31 1
  49   27   28 ar
  50   27   49 1
  51   28   50 1
  52   29   30 1
  53   30   31 1
  54   30   51 1
  55   30   52 1

#	End of record

