#	Name: ASD05740080
#	Creating user name:	WinNT
#	Creation time:	15. 06. 2019 21:02

#	Modifying user name:	WinNT
#	Modification time:	15. 06. 2019 21:02

#	Program:	/corina/corina34_cracker 3.40 0067  02.08.2006

@<TRIPOS>MOLECULE
ASD05740080
  51   52    0    0    0
SMALL
NO_CHARGES


@<TRIPOS>ATOM
   1 C1            -0.0184     1.5028     0.0103 C.3     
   2 C2            -2.6707     1.2544    -2.1320 C.ar    
   3 C3             1.2266    -0.7052    -0.0134 C.2     
   4 C4             1.2189    -2.0943    -0.0199 C.2     
   5 C5             0.0021    -0.0041     0.0020 C.2     
   6 C6            -1.1622    -0.7134     0.0098 C.2     
   7 C7            -1.1198    -2.1170     0.0023 C.2     
   8 O8             0.0559    -2.7678    -0.0120 O.3     
   9 C9            -2.4870     0.0047     0.0268 C.3     
  10 C10           -3.0017     0.1428    -1.3828 C.ar    
  11 C11           -3.8054    -0.8439    -1.9245 C.ar    
  12 O12           -2.1609    -2.7521     0.0092 O.2     
  13 C13           -3.1457     1.3809    -3.4315 C.ar    
  14 C14           -3.9518     0.3878    -3.9727 C.ar    
  15 C15           -4.2794    -0.7214    -3.2176 C.ar    
  16 N16           -2.8128     2.5041    -4.1921 N.am    
  17 S17           -3.9792     3.2835    -5.0722 S.o2    
  18 O18           -3.3396     4.3879    -5.6970 O.2     
  19 O19           -4.6754     2.2776    -5.7953 O.2     
  20 N20            2.5276    -2.4883    -0.0348 N.pl3   
  21 C21            3.2985    -1.3610    -0.0371 C.2     
  22 N22            2.5278    -0.3059    -0.0185 N.2     
  23 O23            4.6523    -1.3399    -0.0505 O.3     
  24 C24            5.2811    -0.0567    -0.0507 C.3     
  25 N25           -5.0635     3.9196    -3.9942 N.am    
  26 C26           -4.6419     4.9715    -3.0657 C.3     
  27 H27            1.0042     1.8801     0.0026 H       
  28 H28           -0.5455     1.8639    -0.8728 H       
  29 H29           -0.5286     1.8543     0.9071 H       
  30 H30           -2.0471     2.0268    -1.7068 H       
  31 H31           -3.2017    -0.5655     0.6203 H       
  32 H32           -2.3583     0.9943     0.4652 H       
  33 H33           -4.0630    -1.7122    -1.3363 H       
  34 H34           -4.3220     0.4827    -4.9828 H       
  35 H35           -4.9062    -1.4941    -3.6378 H       
  36 H36           -1.8985     2.8277    -4.2049 H       
  37 H37            2.8505    -3.4030    -0.0423 H       
  38 H38            6.3638    -0.1826    -0.0620 H       
  39 H39            4.9708     0.4999    -0.9350 H       
  40 H40            4.9885     0.4915     0.8449 H       
  41 H41           -5.9777     3.5958    -3.9776 H       
  42 H42           -3.8335     4.5985    -2.4370 H       
  43 H43           -4.2937     5.8364    -3.6304 H       
  44 H44           -5.4851     5.2622    -2.4390 H       
  45 C45           11.8909    13.5057     7.7754 C.3     
  46 N46           11.9108    12.0408     7.7673 N.2     
  47 C47           12.4515    11.4283     6.8213 C.1     
  48 O48           12.9741    10.8364     5.9071 O.2     
  49 H49           12.9135    13.8830     7.7676 H       
  50 H50           11.3638    13.8668     6.8923 H       
  51 H51           11.3807    13.8572     8.6722 H       
@<TRIPOS>BOND
   1    1    5 1
   2    1   27 1
   3    1   28 1
   4    1   29 1
   5    2   10 ar
   6    2   13 ar
   7    2   30 1
   8    3    4 2
   9    3    5 1
  10    3   22 1
  11    4   20 1
  12    4    8 1
  13    5    6 2
  14    6    7 1
  15    6    9 1
  16    7    8 1
  17    7   12 2
  18    9   10 1
  19    9   31 1
  20    9   32 1
  21   10   11 ar
  22   11   15 ar
  23   11   33 1
  24   13   14 ar
  25   13   16 1
  26   14   15 ar
  27   14   34 1
  28   15   35 1
  29   16   17 am
  30   16   36 1
  31   17   18 2
  32   17   19 2
  33   17   25 am
  34   20   21 1
  35   20   37 1
  36   21   22 2
  37   21   23 1
  38   23   24 1
  39   24   38 1
  40   24   39 1
  41   24   40 1
  42   25   26 1
  43   25   41 1
  44   26   42 1
  45   26   43 1
  46   26   44 1
  47   45   46 1
  48   45   49 1
  49   45   50 1
  50   45   51 1
  51   46   47 2
  52   47   48 2

#	End of record

