#	Name: ASD01410042
#	Creating user name:	WinNT
#	Creation time:	15. 06. 2019 19:16

#	Modifying user name:	WinNT
#	Modification time:	15. 06. 2019 19:16

#	Program:	/corina/corina34_cracker 3.40 0067  02.08.2006

@<TRIPOS>MOLECULE
ASD01410042
  41   42    0    0    0
SMALL
NO_CHARGES


@<TRIPOS>ATOM
   1 C1            -0.0265     1.4012    -0.0670 C.ar    
   2 C2            -0.0037     0.0236    -0.0692 C.ar    
   3 C3            -1.2060    -0.6937    -0.0481 C.ar    
   4 C4            -2.4266     0.0003    -0.0248 C.ar    
   5 C5            -2.4283     1.3871    -0.0229 C.ar    
   6 C6            -1.2352     2.0814    -0.0385 C.ar    
   7 O7            -3.5982    -0.6825    -0.0047 O.3     
   8 C8            -4.7995     0.0911     0.0185 C.3     
   9 C9            -5.9908    -0.8317     0.0386 C.2     
  10 N10           -7.2381    -0.3215     0.0621 N.am    
  11 C11           -8.3390    -1.1690    -0.0326 C.ar    
  12 C12           -8.2754    -2.3098    -0.8209 C.ar    
  13 C13           -9.3680    -3.1487    -0.9134 C.ar    
  14 C14          -10.5340    -2.8605    -0.2230 C.ar    
  15 C15          -10.6159    -1.7325     0.5646 C.ar    
  16 C16           -9.5166    -0.8772     0.6732 C.ar    
  17 C17           -9.5971     0.3305     1.5141 C.2     
  18 O18          -10.7642     0.6701     2.0958 O.3     
  19 O19           -8.6109     1.0201     1.6829 O.2     
  20 O20           -5.8272    -2.0333     0.0336 O.2     
  21 C21           -1.1906    -2.1615    -0.0509 C.2     
  22 Cl22           1.4645     2.2900    -0.0926 Cl      
  23 C23           -1.2461     3.5884    -0.0363 C.3     
  24 C24            0.1220    -2.9013    -0.0764 C.3     
  25 O25           -2.2345    -2.7790    -0.0325 O.2     
  26 H26            0.9397    -0.5019    -0.0876 H       
  27 H27           -3.3647     1.9249    -0.0054 H       
  28 H28           -4.8107     0.7183     0.9098 H       
  29 H29           -4.8430     0.7213    -0.8698 H       
  30 H30           -7.3689     0.6361     0.1449 H       
  31 H31           -7.3703    -2.5412    -1.3628 H       
  32 H32           -9.3135    -4.0350    -1.5281 H       
  33 H33          -11.3833    -3.5229    -0.3028 H       
  34 H34          -11.5274    -1.5123     1.1004 H       
  35 H35          -10.7679     1.4706     2.6382 H       
  36 H36           -1.2345     3.9503     0.9918 H       
  37 H37           -0.3660     3.9589    -0.5619 H       
  38 H38           -2.1458     3.9459    -0.5372 H       
  39 H39            0.4576    -3.0813     0.9449 H       
  40 H40           -0.0078    -3.8541    -0.5895 H       
  41 H41            0.8658    -2.3034    -0.6032 H       
@<TRIPOS>BOND
   1    1    2 ar
   2    1   22 1
   3    1    6 ar
   4    2    3 ar
   5    2   26 1
   6    3    4 ar
   7    3   21 1
   8    4    5 ar
   9    4    7 1
  10    5    6 ar
  11    5   27 1
  12    6   23 1
  13    7    8 1
  14    8    9 1
  15    8   28 1
  16    8   29 1
  17    9   10 am
  18    9   20 2
  19   10   11 1
  20   10   30 1
  21   11   12 ar
  22   11   16 ar
  23   12   13 ar
  24   12   31 1
  25   13   14 ar
  26   13   32 1
  27   14   15 ar
  28   14   33 1
  29   15   16 ar
  30   15   34 1
  31   16   17 1
  32   17   18 1
  33   17   19 2
  34   18   35 1
  35   21   24 1
  36   21   25 2
  37   23   36 1
  38   23   37 1
  39   23   38 1
  40   24   39 1
  41   24   40 1
  42   24   41 1

#	End of record

