#	Name: ASD01913386
#	Creating user name:	WinNT
#	Creation time:	15. 06. 2019 20:01

#	Modifying user name:	WinNT
#	Modification time:	15. 06. 2019 20:01

#	Program:	/corina/corina34_cracker 3.40 0067  02.08.2006

@<TRIPOS>MOLECULE
ASD01913386
  35   37    0    0    0
SMALL
NO_CHARGES


@<TRIPOS>ATOM
   1 C1            -0.1003    -0.7292    -2.1556 C.ar    
   2 C2            -0.5352    -0.0395    -1.0283 C.ar    
   3 C3            -0.4993     1.3478    -1.0317 C.ar    
   4 N4            -0.0606     2.0066    -2.0856 N.ar    
   5 C5             0.3586     1.3832    -3.1696 C.ar    
   6 C6             0.3534     0.0029    -3.2412 C.ar    
   7 C7            -1.0050    -2.0724     0.0080 C.ar    
   8 C8             0.1705    -2.7877     0.1931 C.ar    
   9 C9             0.1595    -4.1697     0.1467 C.ar    
  10 C10           -1.0201    -4.8471    -0.0839 C.ar    
  11 C11           -2.2073    -4.1366    -0.2711 C.ar    
  12 C12           -2.1948    -2.7425    -0.2241 C.ar    
  13 C13           -3.4729    -4.8591    -0.5189 C.2     
  14 N14           -3.4822    -6.2060    -0.5643 N.am    
  15 C15           -4.6890    -6.8905    -0.6919 C.ar    
  16 O16           -4.5053    -4.2384    -0.6816 O.2     
  17 O17           -0.9892    -0.7146     0.0602 O.3     
  18 C18           -4.7042    -8.2788    -0.6214 C.ar    
  19 C19           -5.9099    -8.9461    -0.7493 C.ar    
  20 C20           -7.0631    -8.1985    -0.9440 C.ar    
  21 C21           -6.9742    -6.8215    -1.0040 C.ar    
  22 N22           -5.8115    -6.2125    -0.8737 N.ar    
  23 H23           -0.1118    -1.8088    -2.1822 H       
  24 H24           -0.8345     1.8932    -0.1619 H       
  25 H25            0.7107     1.9590    -4.0127 H       
  26 H26            0.6985    -0.4992    -4.1329 H       
  27 H27            1.0970    -2.2628     0.3736 H       
  28 H28            1.0772    -4.7205     0.2910 H       
  29 H29           -1.0250    -5.9265    -0.1198 H       
  30 H30           -3.1100    -2.1874    -0.3679 H       
  31 H31           -2.6487    -6.6990    -0.5081 H       
  32 H32           -3.7875    -8.8291    -0.4693 H       
  33 H33           -5.9524   -10.0240    -0.6991 H       
  34 H34           -8.0199    -8.6886    -1.0479 H       
  35 H35           -7.8688    -6.2358    -1.1557 H       
@<TRIPOS>BOND
   1    1    2 ar
   2    1    6 ar
   3    1   23 1
   4    2    3 ar
   5    2   17 1
   6    3    4 ar
   7    3   24 1
   8    4    5 ar
   9    5    6 ar
  10    5   25 1
  11    6   26 1
  12    7    8 ar
  13    7   12 ar
  14    7   17 1
  15    8    9 ar
  16    8   27 1
  17    9   10 ar
  18    9   28 1
  19   10   11 ar
  20   10   29 1
  21   11   12 ar
  22   11   13 1
  23   12   30 1
  24   13   14 am
  25   13   16 2
  26   14   15 1
  27   14   31 1
  28   15   18 ar
  29   15   22 ar
  30   18   19 ar
  31   18   32 1
  32   19   20 ar
  33   19   33 1
  34   20   21 ar
  35   20   34 1
  36   21   22 ar
  37   21   35 1

#	End of record

