#	Name: ASD01880266
#	Creating user name:	WinNT
#	Creation time:	15. 06. 2019 19:40

#	Modifying user name:	WinNT
#	Modification time:	15. 06. 2019 19:40

#	Program:	/corina/corina34_cracker 3.40 0067  02.08.2006

@<TRIPOS>MOLECULE
ASD01880266
  47   49    0    0    0
SMALL
NO_CHARGES


@<TRIPOS>ATOM
   1 C1            -0.0416     1.3670     0.1700 C.ar    
   2 C2            -0.0106    -0.0178     0.1407 C.ar    
   3 C3             1.2055    -0.6870     0.0084 C.ar    
   4 C4             2.3835     0.0338    -0.0939 C.ar    
   5 C5             2.3494     1.4267    -0.0642 C.ar    
   6 C6             1.1311     2.0893     0.0683 C.ar    
   7 C7             3.6094     2.2032    -0.1730 C.2     
   8 C8             3.8281     3.0069    -1.2542 C.2     
   9 N9             4.9767     3.7201    -1.3618 N.am    
  10 C10            5.9241     3.6518    -0.4081 C.2     
  11 C11            5.7358     2.8355     0.7212 C.2     
  12 C12            4.5846     2.1183     0.8441 C.2     
  13 O13            6.9511     4.3009    -0.5242 O.2     
  14 C14            5.1893     4.5757    -2.5318 C.3     
  15 C15            4.6519     5.9551    -2.2497 C.ar    
  16 N16            1.2356    -2.0860    -0.0205 N.am    
  17 S17            2.4946    -2.9018     0.6806 S.o2    
  18 C18            2.4633    -2.3768     2.4167 C.3     
  19 O19            2.1316    -4.2710     0.5671 O.2     
  20 O20            3.6492    -2.3933     0.0267 O.2     
  21 C21            5.4728     6.9147    -1.6872 C.ar    
  22 C22            4.9805     8.1799    -1.4282 C.ar    
  23 C23            3.6659     8.4860    -1.7321 C.ar    
  24 C24            2.8449     7.5252    -2.2950 C.ar    
  25 C25            3.3399     6.2620    -2.5587 C.ar    
  26 Cl26           3.0468    10.0748    -1.4066 Cl      
  27 O27           -1.1677    -0.7254     0.2417 O.3     
  28 C28           -2.3770     0.0242     0.3753 C.3     
  29 H29           -0.9854     1.8829     0.2680 H       
  30 H30            3.3266    -0.4824    -0.1961 H       
  31 H31            1.1037     3.1687     0.0910 H       
  32 H32            3.0805     3.0753    -2.0306 H       
  33 H33            6.4959     2.7807     1.4864 H       
  34 H34            4.4234     1.4863     1.7049 H       
  35 H35            6.2560     4.6383    -2.7471 H       
  36 H36            4.6694     4.1519    -3.3911 H       
  37 H37            0.5190    -2.5777    -0.4513 H       
  38 H38            1.5054    -2.6474     2.8609 H       
  39 H39            3.2685    -2.8710     2.9604 H       
  40 H40            2.5973    -1.2965     2.4721 H       
  41 H41            6.4989     6.6755    -1.4497 H       
  42 H42            5.6218     8.9294    -0.9884 H       
  43 H43            1.8186     7.7636    -2.5325 H       
  44 H44            2.6991     5.5119    -2.9982 H       
  45 H45           -3.2226    -0.6599     0.4459 H       
  46 H46           -2.3279     0.6355     1.2765 H       
  47 H47           -2.5028     0.6689    -0.4946 H       
@<TRIPOS>BOND
   1    1    2 ar
   2    1    6 ar
   3    1   29 1
   4    2    3 ar
   5    2   27 1
   6    3    4 ar
   7    3   16 1
   8    4    5 ar
   9    4   30 1
  10    5    6 ar
  11    5    7 1
  12    6   31 1
  13    7    8 2
  14    7   12 1
  15    8    9 1
  16    8   32 1
  17    9   10 am
  18    9   14 1
  19   10   11 1
  20   10   13 2
  21   11   12 2
  22   11   33 1
  23   12   34 1
  24   14   15 1
  25   14   35 1
  26   14   36 1
  27   15   21 ar
  28   15   25 ar
  29   16   17 am
  30   16   37 1
  31   17   18 1
  32   17   19 2
  33   17   20 2
  34   18   38 1
  35   18   39 1
  36   18   40 1
  37   21   22 ar
  38   21   41 1
  39   22   23 ar
  40   22   42 1
  41   23   24 ar
  42   23   26 1
  43   24   25 ar
  44   24   43 1
  45   25   44 1
  46   27   28 1
  47   28   45 1
  48   28   46 1
  49   28   47 1

#	End of record

