#	Name: ASD01120362
#	Creating user name:	WinNT
#	Creation time:	15. 06. 2019 18:59

#	Modifying user name:	WinNT
#	Modification time:	15. 06. 2019 18:59

#	Program:	/corina/corina34_cracker 3.40 0067  02.08.2006

@<TRIPOS>MOLECULE
ASD01120362
  44   46    0    0    0
SMALL
NO_CHARGES


@<TRIPOS>ATOM
   1 C1            -0.0321     1.3613    -0.5223 C.ar    
   2 C2            -0.0095    -0.0218    -0.4409 C.ar    
   3 C3             1.1828    -0.7023    -0.3163 C.ar    
   4 C4             2.3863    -0.0045    -0.2698 C.ar    
   5 C5             2.3789     1.4011    -0.3514 C.ar    
   6 C6             1.1510     2.0851    -0.4792 C.ar    
   7 N7             3.6976    -0.4023    -0.1532 N.pl3   
   8 C8             4.5042     0.7200    -0.1602 C.2     
   9 C9             3.7230     1.8279    -0.2799 C.2     
  10 C10            4.2059     3.2546    -0.3276 C.3     
  11 C11            4.3271     3.7035    -1.7853 C.3     
  12 C12            4.8101     5.1302    -1.8330 C.2     
  13 O13            4.9911     5.7383    -3.0159 O.3     
  14 O14            5.0343     5.7268    -0.8065 O.2     
  15 C15            5.9686     0.7174    -0.0550 C.2     
  16 O16            6.5811     1.7675    -0.0713 O.2     
  17 O17            6.6343    -0.4498     0.0598 O.3     
  18 C18            1.1255     3.5632    -0.5657 C.ar    
  19 C19            0.6026     4.1884    -1.6981 C.ar    
  20 C20            0.5799     5.5647    -1.7751 C.ar    
  21 C21            1.0768     6.3286    -0.7272 C.ar    
  22 C22            1.5984     5.7097     0.4012 C.ar    
  23 C23            1.6189     4.3339     0.4874 C.ar    
  24 O24            1.0529     7.6846    -0.8064 O.3     
  25 C25            1.5799     8.4089     0.3070 C.3     
  26 N26            1.1832    -2.1802    -0.2311 N.pl3   
  27 O27            0.1312    -2.7928    -0.2712 O.2     
  28 O28            2.2355    -2.7836    -0.1209 O.2     
  29 H29           -0.9749     1.8783    -0.6242 H       
  30 H30           -0.9374    -0.5734    -0.4753 H       
  31 H31            4.0055    -1.3191    -0.0781 H       
  32 H32            3.4948     3.8965     0.1923 H       
  33 H33            5.1800     3.3248     0.1564 H       
  34 H34            5.0383     3.0616    -2.3052 H       
  35 H35            3.3530     3.6332    -2.2693 H       
  36 H36            5.3020     6.6537    -2.9959 H       
  37 H37            7.5978    -0.4010     0.1261 H       
  38 H38            0.2163     3.5949    -2.5135 H       
  39 H39            0.1756     6.0493    -2.6515 H       
  40 H40            1.9846     6.3069     1.2140 H       
  41 H41            2.0247     3.8532     1.3652 H       
  42 H42            1.0143     8.1579     1.2043 H       
  43 H43            2.6270     8.1423     0.4511 H       
  44 H44            1.5005     9.4789     0.1149 H       
@<TRIPOS>BOND
   1    1    2 ar
   2    1    6 ar
   3    1   29 1
   4    2    3 ar
   5    2   30 1
   6    3   26 1
   7    3    4 ar
   8    4    5 ar
   9    4    7 1
  10    5    6 ar
  11    5    9 1
  12    6   18 1
  13    7    8 1
  14    7   31 1
  15    8    9 2
  16    8   15 1
  17    9   10 1
  18   10   11 1
  19   10   32 1
  20   10   33 1
  21   11   12 1
  22   11   34 1
  23   11   35 1
  24   12   13 1
  25   12   14 2
  26   13   36 1
  27   15   16 2
  28   15   17 1
  29   17   37 1
  30   18   19 ar
  31   18   23 ar
  32   19   20 ar
  33   19   38 1
  34   20   21 ar
  35   20   39 1
  36   21   22 ar
  37   21   24 1
  38   22   23 ar
  39   22   40 1
  40   23   41 1
  41   24   25 1
  42   25   42 1
  43   25   43 1
  44   25   44 1
  45   26   27 2
  46   26   28 2

#	End of record

