#	Name: ASD01915480
#	Creating user name:	WinNT
#	Creation time:	15. 06. 2019 20:05

#	Modifying user name:	WinNT
#	Modification time:	15. 06. 2019 20:05

#	Program:	/corina/corina34_cracker 3.40 0067  02.08.2006

@<TRIPOS>MOLECULE
ASD01915480
  50   53    0    0    0
SMALL
NO_CHARGES


@<TRIPOS>ATOM
   1 C1            -0.0167     1.3839     0.0097 C.ar    
   2 C2             0.0021    -0.0041     0.0020 C.ar    
   3 N3             1.1017     2.0842     0.0027 N.ar    
   4 C4             2.2829     1.5042    -0.0117 C.ar    
   5 C5             2.3850     0.1107    -0.0188 C.ar    
   6 C6             1.2262    -0.6640    -0.0125 C.ar    
   7 C7             3.5455     2.3269    -0.0221 C.3     
   8 C8             4.6385     1.6130     0.7693 C.3     
   9 N9             4.7948     0.2317     0.3214 N.am    
  10 C10            3.7255    -0.5106    -0.0317 C.2     
  11 O11            3.8627    -1.6740    -0.3557 O.2     
  12 C12            6.1346    -0.3570     0.2544 C.3     
  13 O13           -1.1602    -0.7087     0.0091 O.3     
  14 C14           -2.3750     0.0438     0.0245 C.3     
  15 C15           -3.5502    -0.8996     0.0304 C.ar    
  16 C16           -4.0780    -1.3387     1.2301 C.ar    
  17 C17           -4.1039    -1.3214    -1.1640 C.ar    
  18 C18           -5.1819    -2.1867    -1.1586 C.ar    
  19 C19           -5.7059    -2.6306     0.0411 C.ar    
  20 C20           -5.1560    -2.2040     1.2355 C.ar    
  21 C21            6.4635    -1.0086     1.5728 C.ar    
  22 C22            6.1422    -2.3365     1.7855 C.ar    
  23 C23            6.4426    -2.9362     2.9932 C.ar    
  24 C24            7.0671    -2.2049     3.9931 C.ar    
  25 C25            7.3884    -0.8727     3.7772 C.ar    
  26 C26            7.0910    -0.2792     2.5657 C.ar    
  27 O27            7.3632    -2.7924     5.1822 O.3     
  28 C28            8.0063    -1.9789     6.1654 C.3     
  29 H29           -0.9651     1.9006     0.0169 H       
  30 H30            1.2774    -1.7428    -0.0186 H       
  31 H31            3.8770     2.4679    -1.0509 H       
  32 H32            3.3478     3.2990     0.4295 H       
  33 H33            5.5818     2.1419     0.6335 H       
  34 H34            4.3755     1.6183     1.8271 H       
  35 H35            6.1636    -1.1050    -0.5379 H       
  36 H36            6.8647     0.4244     0.0432 H       
  37 H37           -2.4049     0.6671     0.9181 H       
  38 H38           -2.4216     0.6767    -0.8617 H       
  39 H39           -3.6480    -1.0059     2.1633 H       
  40 H40           -3.6945    -0.9745    -2.1013 H       
  41 H41           -5.6150    -2.5156    -2.0916 H       
  42 H42           -6.5484    -3.3063     0.0454 H       
  43 H43           -5.5654    -2.5508     2.1729 H       
  44 H44            5.6557    -2.9053     1.0069 H       
  45 H45            6.1911    -3.9733     3.1589 H       
  46 H46            7.8746    -0.3013     4.5540 H       
  47 H47            7.3409     0.7579     2.3971 H       
  48 H48            8.9566    -1.6173     5.7727 H       
  49 H49            7.3673    -1.1302     6.4092 H       
  50 H50            8.1855    -2.5688     7.0643 H       
@<TRIPOS>BOND
   1    1    2 ar
   2    1    3 ar
   3    1   29 1
   4    2   13 1
   5    2    6 ar
   6    3    4 ar
   7    4    5 ar
   8    4    7 1
   9    5    6 ar
  10    5   10 1
  11    6   30 1
  12    7    8 1
  13    7   31 1
  14    7   32 1
  15    8    9 1
  16    8   33 1
  17    8   34 1
  18    9   10 am
  19    9   12 1
  20   10   11 2
  21   12   21 1
  22   12   35 1
  23   12   36 1
  24   13   14 1
  25   14   15 1
  26   14   37 1
  27   14   38 1
  28   15   16 ar
  29   15   17 ar
  30   16   20 ar
  31   16   39 1
  32   17   18 ar
  33   17   40 1
  34   18   19 ar
  35   18   41 1
  36   19   20 ar
  37   19   42 1
  38   20   43 1
  39   21   22 ar
  40   21   26 ar
  41   22   23 ar
  42   22   44 1
  43   23   24 ar
  44   23   45 1
  45   24   25 ar
  46   24   27 1
  47   25   26 ar
  48   25   46 1
  49   26   47 1
  50   27   28 1
  51   28   48 1
  52   28   49 1
  53   28   50 1

#	End of record

