#	Name: ASD01028280
#	Creating user name:	WinNT
#	Creation time:	15. 06. 2019 18:56

#	Modifying user name:	WinNT
#	Modification time:	15. 06. 2019 18:56

#	Program:	/corina/corina34_cracker 3.40 0067  02.08.2006

@<TRIPOS>MOLECULE
ASD01028280
  38   41    0    0    0
SMALL
NO_CHARGES


@<TRIPOS>ATOM
   1 C1            -0.0166     1.3719     0.0096 C.ar    
   2 C2             0.0021    -0.0041     0.0020 C.ar    
   3 C3             1.1750     2.1035     0.0021 C.ar    
   4 C4             2.3797     1.4715    -0.0128 C.ar    
   5 C5             2.4326     0.0695    -0.0208 C.ar    
   6 C6             1.2322    -0.6815    -0.0134 C.ar    
   7 C7             3.6676    -0.6170    -0.0367 C.ar    
   8 C8             3.6411    -2.0003    -0.0444 C.ar    
   9 C9             2.4221    -2.6660    -0.0364 C.ar    
  10 N10            1.2804    -2.0188    -0.0211 N.ar    
  11 O11            4.8427     0.0593    -0.0447 O.3     
  12 C12            6.0400    -0.7207    -0.0607 C.3     
  13 C13            7.2364     0.1957    -0.0676 C.2     
  14 N14            7.8870     0.6798     1.0269 N.pl3   
  15 C15            8.9048     1.4655     0.5416 C.2     
  16 N16            8.8256     1.4219    -0.7775 N.2     
  17 N17            7.8435     0.6671    -1.1253 N.2     
  18 C18            7.7089     0.5260     2.3659 C.2     
  19 C19            8.5408     1.1516     3.2492 C.2     
  20 C20            9.5982     1.9676     2.7722 C.2     
  21 C21            9.7762     2.1207     1.4362 C.2     
  22 O22           -1.2065     2.0271     0.0188 O.3     
  23 C23           -1.1606     3.4553     0.0263 C.3     
  24 C24            8.3453     0.9843     4.6579 C.1     
  25 N25            8.1903     0.8515     5.7754 N.1     
  26 H26           -0.9239    -0.5598     0.0082 H       
  27 H27            1.1387     3.1829     0.0079 H       
  28 H28            3.2932     2.0476    -0.0188 H       
  29 H29            4.5646    -2.5602    -0.0569 H       
  30 H30            2.4134    -3.7460    -0.0425 H       
  31 H31            6.0728    -1.3543     0.8256 H       
  32 H32            6.0552    -1.3447    -0.9543 H       
  33 H33            6.9045    -0.0943     2.7328 H       
  34 H34           10.2577     2.4641     3.4685 H       
  35 H35           10.5780     2.7392     1.0609 H       
  36 H36           -2.1761     3.8514     0.0333 H       
  37 H37           -0.6312     3.7971     0.9157 H       
  38 H38           -0.6396     3.8068    -0.8642 H       
@<TRIPOS>BOND
   1    1    2 ar
   2    1    3 ar
   3    1   22 1
   4    2    6 ar
   5    2   26 1
   6    3    4 ar
   7    3   27 1
   8    4    5 ar
   9    4   28 1
  10    5    6 ar
  11    5    7 ar
  12    6   10 ar
  13    7    8 ar
  14    7   11 1
  15    8    9 ar
  16    8   29 1
  17    9   10 ar
  18    9   30 1
  19   11   12 1
  20   12   13 1
  21   12   31 1
  22   12   32 1
  23   13   14 1
  24   13   17 2
  25   14   15 1
  26   14   18 1
  27   15   16 2
  28   15   21 1
  29   16   17 1
  30   18   19 2
  31   18   33 1
  32   19   20 1
  33   19   24 1
  34   20   21 2
  35   20   34 1
  36   21   35 1
  37   22   23 1
  38   23   36 1
  39   23   37 1
  40   23   38 1
  41   24   25 3

#	End of record

