#	Name: ASD09800044
#	Creating user name:	WinNT
#	Creation time:	15. 06. 2019 21:24

#	Modifying user name:	WinNT
#	Modification time:	15. 06. 2019 21:24

#	Program:	/corina/corina34_cracker 3.40 0067  02.08.2006

@<TRIPOS>MOLECULE
ASD09800044
  66   71    0    0    0
SMALL
NO_CHARGES


@<TRIPOS>ATOM
   1 C1            -3.2261     1.2270     2.8731 C.2     
   2 N2            -4.3112     0.5704     3.2415 N.2     
   3 C3            -5.0253    -0.1424     2.3606 C.2     
   4 C4            -4.6710    -0.2219     1.0652 C.2     
   5 C5            -2.8135     1.1828     1.5261 C.2     
   6 C6            -1.7575     1.7345     0.8089 C.2     
   7 N7            -3.5491     0.4411     0.6203 N.pl3   
   8 C8            -2.9489     0.5657    -0.5770 C.2     
   9 N9            -1.8931     1.3308    -0.4650 N.2     
  10 C10           -0.6889     2.6010     1.3464 C.ar    
  11 C11            0.1770     4.8216     1.8935 C.ar    
  12 C12            1.3601     4.2196     2.3739 C.ar    
  13 C13            1.4997     2.8481     2.3291 C.ar    
  14 C14            0.4885     2.0441     1.8212 C.ar    
  15 C15           -0.8579     4.0078     1.3747 C.ar    
  16 N16            2.3890     5.0112     2.8883 N.am    
  17 C17            3.6525     4.5427     2.9115 C.2     
  18 N18            4.6268     5.2608     3.5044 N.am    
  19 O19            3.9134     3.4720     2.3976 O.2     
  20 C20            5.9169     4.7308     3.6169 C.ar    
  21 C21            7.9565     4.4739     4.8514 C.ar    
  22 C22            6.6835     4.9990     4.7431 C.ar    
  23 C23            6.4312     3.9304     2.6050 C.ar    
  24 C24            7.7045     3.4084     2.7193 C.ar    
  25 C25            8.4675     3.6818     3.8399 C.ar    
  26 N26           -2.5032     1.9576     3.8013 N.pl3   
  27 C27           -3.4191    -0.0815    -1.8541 C.3     
  28 C28           -4.8340     0.2481    -2.3338 C.3     
  29 C29           -3.6229     0.8230    -3.0711 C.3     
  30 C30           -2.9001    -1.4987    -2.1056 C.3     
  31 C31            0.0088     6.2153     1.9209 C.ar    
  32 C32           -2.0320     4.6072     0.8976 C.ar    
  33 C33           -2.1627     5.9628     0.9388 C.ar    
  34 C34           -1.1447     6.7646     1.4492 C.ar    
  35 S35            8.3576     2.3925     1.4363 S.o2    
  36 O36            9.3665     1.5901     2.0342 O.2     
  37 O37            7.2403     1.8498     0.7462 O.2     
  38 N38            9.1290     3.3918     0.3645 N.am    
  39 C39           10.3176     4.1382     0.7841 C.3     
  40 H40           -5.9071    -0.6664     2.6987 H       
  41 H41           -5.2646    -0.8044     0.3762 H       
  42 H42            2.4070     2.3929     2.6980 H       
  43 H43            0.6203     0.9725     1.7960 H       
  44 H44            2.1944     5.8984     3.2289 H       
  45 H45            4.4336     6.1452     3.8530 H       
  46 H46            8.5534     4.6825     5.7269 H       
  47 H47            6.2850     5.6180     5.5334 H       
  48 H48            5.8357     3.7163     1.7298 H       
  49 H49            9.4631     3.2724     3.9269 H       
  50 H50           -2.7390     1.9160     4.7413 H       
  51 H51           -1.7611     2.5109     3.5115 H       
  52 H52           -5.3950    -0.5445    -2.8289 H       
  53 H53           -5.4248     0.9332    -1.7257 H       
  54 H54           -3.4169     1.8863    -2.9481 H       
  55 H55           -3.3871     0.4086    -4.0513 H       
  56 H56           -3.1818    -2.1420    -1.2720 H       
  57 H57           -3.3346    -1.8866    -3.0269 H       
  58 H58           -1.8142    -1.4770    -2.1970 H       
  59 H59            0.7905     6.8486     2.3137 H       
  60 H60           -2.8291     3.9972     0.4988 H       
  61 H61           -3.0680     6.4219     0.5702 H       
  62 H62           -1.2719     7.8369     1.4716 H       
  63 H63            8.7938     3.4829    -0.5412 H       
  64 H64           10.0603     4.7933     1.6164 H       
  65 H65           11.0933     3.4397     1.0979 H       
  66 H66           10.6838     4.7371    -0.0498 H       
@<TRIPOS>BOND
   1    1    2 2
   2    1   26 1
   3    1    5 1
   4    2    3 1
   5    3    4 2
   6    3   40 1
   7    4    7 1
   8    4   41 1
   9    5    7 1
  10    5    6 2
  11    6    9 1
  12    6   10 1
  13    7    8 1
  14    8    9 2
  15    8   27 1
  16   10   15 ar
  17   10   14 ar
  18   11   12 ar
  19   11   15 ar
  20   11   31 ar
  21   12   13 ar
  22   12   16 1
  23   13   14 ar
  24   13   42 1
  25   14   43 1
  26   15   32 ar
  27   16   17 am
  28   16   44 1
  29   17   18 am
  30   17   19 2
  31   18   20 1
  32   18   45 1
  33   20   23 ar
  34   20   22 ar
  35   21   22 ar
  36   21   25 ar
  37   21   46 1
  38   22   47 1
  39   23   24 ar
  40   23   48 1
  41   24   25 ar
  42   24   35 1
  43   25   49 1
  44   26   50 1
  45   26   51 1
  46   27   28 1
  47   27   29 1
  48   27   30 1
  49   28   29 1
  50   28   52 1
  51   28   53 1
  52   29   54 1
  53   29   55 1
  54   30   56 1
  55   30   57 1
  56   30   58 1
  57   31   34 ar
  58   31   59 1
  59   32   33 ar
  60   32   60 1
  61   33   34 ar
  62   33   61 1
  63   34   62 1
  64   35   36 2
  65   35   37 2
  66   35   38 am
  67   38   39 1
  68   38   63 1
  69   39   64 1
  70   39   65 1
  71   39   66 1

#	End of record

