#	Name: ASD03550002
#	Creating user name:	WinNT
#	Creation time:	15. 06. 2019 20:43

#	Modifying user name:	WinNT
#	Modification time:	15. 06. 2019 20:43

#	Program:	/corina/corina34_cracker 3.40 0067  02.08.2006

@<TRIPOS>MOLECULE
ASD03550002
  44   45    0    0    0
SMALL
NO_CHARGES


@<TRIPOS>ATOM
   1 C1            -0.0184     1.5028     0.0103 C.2     
   2 N2             1.3055    -0.4734    -0.4867 N.3     
   3 C3             0.0021    -0.0041     0.0020 C.3     
   4 C4            -0.2279    -0.5251     1.4221 C.3     
   5 C5            -0.3300    -2.0284     1.3953 C.ar    
   6 C6             0.8076    -2.8001     1.5442 C.ar    
   7 C7             0.7166    -4.1783     1.5200 C.ar    
   8 C8            -0.5173    -4.7880     1.3460 C.ar    
   9 C9            -1.6572    -4.0114     1.1968 C.ar    
  10 C10           -1.5617    -2.6336     1.2274 C.ar    
  11 O11            1.0236     2.1234     0.0037 O.2     
  12 N12           -1.1946     2.1607     0.0195 N.am    
  13 C13           -1.2145     3.6256     0.0275 C.3     
  14 C14           -1.0907     4.1218     1.4451 C.2     
  15 O15           -1.0861     5.4403     1.6966 O.3     
  16 C16           -2.5315     4.1210    -0.5732 C.3     
  17 C17           -2.5994     3.7294    -2.0268 C.ar    
  18 C18           -3.1567     2.5179    -2.3909 C.ar    
  19 C19           -3.2190     2.1587    -3.7243 C.ar    
  20 C20           -2.7243     3.0111    -4.6936 C.ar    
  21 C21           -2.1677     4.2229    -4.3296 C.ar    
  22 C22           -2.1094     4.5841    -2.9965 C.ar    
  23 O23           -0.9957     3.3329     2.3552 O.2     
  24 O24           -0.6093    -6.1436     1.3214 O.3     
  25 H25            2.0536    -0.1430     0.1043 H       
  26 H26            1.3222    -1.4794    -0.5627 H       
  27 H27           -0.7864    -0.3745    -0.6531 H       
  28 H28            0.6068    -0.2288     2.0574 H       
  29 H29           -1.1526    -0.1051     1.8179 H       
  30 H30            1.7680    -2.3250     1.6792 H       
  31 H31            1.6055    -4.7807     1.6360 H       
  32 H32           -2.6190    -4.4836     1.0612 H       
  33 H33           -2.4494    -2.0286     1.1160 H       
  34 H34           -2.0280     1.6644     0.0207 H       
  35 H35           -0.3805     4.0035    -0.5638 H       
  36 H36           -1.0046     5.7106     2.6215 H       
  37 H37           -3.3673     3.6721    -0.0365 H       
  38 H38           -2.5849     5.2063    -0.4864 H       
  39 H39           -3.5432     1.8520    -1.6336 H       
  40 H40           -3.6538     1.2118    -4.0087 H       
  41 H41           -2.7723     2.7301    -5.7353 H       
  42 H42           -1.7809     4.8888    -5.0869 H       
  43 H43           -1.6746     5.5309    -2.7121 H       
  44 H44           -0.7555    -6.5438     2.1895 H       
@<TRIPOS>BOND
   1    1    3 1
   2    1   11 2
   3    1   12 am
   4    2    3 1
   5    2   25 1
   6    2   26 1
   7    3    4 1
   8    3   27 1
   9    4    5 1
  10    4   28 1
  11    4   29 1
  12    5    6 ar
  13    5   10 ar
  14    6    7 ar
  15    6   30 1
  16    7    8 ar
  17    7   31 1
  18    8    9 ar
  19    8   24 1
  20    9   10 ar
  21    9   32 1
  22   10   33 1
  23   12   13 1
  24   12   34 1
  25   13   14 1
  26   13   16 1
  27   13   35 1
  28   14   15 1
  29   14   23 2
  30   15   36 1
  31   16   17 1
  32   16   37 1
  33   16   38 1
  34   17   18 ar
  35   17   22 ar
  36   18   19 ar
  37   18   39 1
  38   19   20 ar
  39   19   40 1
  40   20   21 ar
  41   20   41 1
  42   21   22 ar
  43   21   42 1
  44   22   43 1
  45   24   44 1

#	End of record

