#	Name: ASD01884139
#	Creating user name:	WinNT
#	Creation time:	15. 06. 2019 19:47

#	Modifying user name:	WinNT
#	Modification time:	15. 06. 2019 19:47

#	Program:	/corina/corina34_cracker 3.40 0067  02.08.2006

@<TRIPOS>MOLECULE
ASD01884139
  11   11    0    0    0
SMALL
NO_CHARGES


@<TRIPOS>ATOM
   1 C1            -0.0167     1.3832     0.0096 C.ar    
   2 C2             0.0021    -0.0041     0.0020 C.ar    
   3 C3            -1.2093    -0.6809     0.0104 C.ar    
   4 C4            -2.3855     0.0430     0.0260 C.ar    
   5 N5            -2.3672     1.3620     0.0329 N.ar    
   6 C6            -1.2355     2.0405     0.0306 C.ar    
   7 I7             1.8160    -1.0520    -0.0223 I       
   8 Cl8            1.4678     2.2830     0.0003 Cl      
   9 Cl9           -1.2749     3.7760     0.0406 Cl      
  10 H10           -1.2321    -1.7606     0.0045 H       
  11 H11           -3.3319    -0.4773     0.0323 H       
@<TRIPOS>BOND
   1    1    2 ar
   2    1    8 1
   3    1    6 ar
   4    2    3 ar
   5    2    7 1
   6    3    4 ar
   7    3   10 1
   8    4    5 ar
   9    4   11 1
  10    5    6 ar
  11    6    9 1

#	End of record

