#	Name: ASD08150405
#	Creating user name:	WinNT
#	Creation time:	15. 06. 2019 21:15

#	Modifying user name:	WinNT
#	Modification time:	15. 06. 2019 21:15

#	Program:	/corina/corina34_cracker 3.40 0067  02.08.2006

@<TRIPOS>MOLECULE
ASD08150405
  66   72    0    0    0
SMALL
NO_CHARGES


@<TRIPOS>ATOM
   1 N1            -0.2026     0.7370     2.1669 N.am    
   2 C2            -0.3537    -0.5898     1.9890 C.2     
   3 C3             0.7617    -1.4517     1.9892 C.2     
   4 C4             2.0110    -0.9521     2.1696 C.2     
   5 C5             2.1736     0.4433     2.3566 C.ar    
   6 C6             3.4470     1.0131     2.5475 C.ar    
   7 N7             3.5941     2.3007     2.7198 N.ar    
   8 C8             2.5534     3.1476     2.7248 C.ar    
   9 C9             1.2355     2.6622     2.5397 C.ar    
  10 C10            1.0420     1.2735     2.3515 C.ar    
  11 C11            0.1577     3.5529     2.5476 C.ar    
  12 C12            0.3917     4.9053     2.7371 C.ar    
  13 C13            1.6988     5.3783     2.9193 C.ar    
  14 C14            2.7572     4.5244     2.9140 C.ar    
  15 O15           -1.4704    -1.0514     1.8259 O.2     
  16 C16           -0.7458     5.8570     2.7469 C.ar    
  17 C17           -1.3267     1.5732     2.1572 C.ar    
  18 C18           -1.8910     1.9642     0.9495 C.ar    
  19 C19           -2.9985     2.7875     0.9397 C.ar    
  20 C20           -3.5492     3.2253     2.1379 C.ar    
  21 C21           -2.9849     2.8342     3.3453 C.ar    
  22 C22           -1.8802     2.0064     3.3549 C.ar    
  23 N23           -4.6708     4.0596     2.1281 N.3     
  24 C24           -5.8502     3.3628     2.6603 C.3     
  25 C25           -4.9323     4.5748     0.7769 C.3     
  26 C26           -6.1161     5.5437     0.8234 C.3     
  27 N27           -7.2955     4.8469     1.3556 N.3     
  28 C28           -7.0340     4.3317     2.7068 C.3     
  29 C29           -1.8214     5.6687     1.8812 C.ar    
  30 C30           -2.8781     6.5557     1.8912 C.ar    
  31 C31           -2.8745     7.6374     2.7609 C.ar    
  32 C32           -1.8043     7.8286     3.6294 C.ar    
  33 C33           -0.7441     6.9385     3.6259 C.ar    
  34 O34           -3.9235     8.5049     2.7485 O.3     
  35 C35           -4.0645     9.3611     3.8871 C.3     
  36 C36           -2.6887     9.9572     4.2139 C.3     
  37 O37           -1.7886     8.8798     4.4943 O.3     
  38 C38           -3.5820     3.3089     4.6450 C.3     
  39 F39           -2.6783     3.0741     5.6868 F       
  40 F40           -3.8515     4.6792     4.5614 F       
  41 F41           -4.7707     2.6142     4.8933 F       
  42 H42            0.6220    -2.5129     1.8458 H       
  43 H43            2.8686    -1.6086     2.1709 H       
  44 H44            4.3181     0.3747     2.5519 H       
  45 H45           -0.8495     3.1896     2.4066 H       
  46 H46            1.8675     6.4350     3.0653 H       
  47 H47            3.7575     4.9059     3.0565 H       
  48 H48           -1.4627     1.6242     0.0182 H       
  49 H49           -3.4369     3.0917     0.0008 H       
  50 H50           -1.4441     1.6987     4.2938 H       
  51 H51           -6.0959     2.5192     2.0153 H       
  52 H52           -5.6361     3.0017     3.6662 H       
  53 H53           -4.0489     5.0973     0.4097 H       
  54 H54           -5.1676     3.7449     0.1105 H       
  55 H55           -5.8704     6.3874     1.4684 H       
  56 H56           -6.3302     5.9048    -0.1825 H       
  57 H57           -8.1050     5.4491     1.3485 H       
  58 H58           -7.9174     3.8093     3.0740 H       
  59 H59           -6.7988     5.1616     3.3732 H       
  60 H60           -1.8277     4.8287     1.2024 H       
  61 H61           -3.7110     6.4080     1.2196 H       
  62 H62            0.0880     7.0868     4.2984 H       
  63 H63           -4.7676    10.1623     3.6596 H       
  64 H64           -4.4266     8.7842     4.7381 H       
  65 H65           -2.3235    10.5286     3.3605 H       
  66 H66           -2.7672    10.6069     5.0856 H       
@<TRIPOS>BOND
   1    1    2 am
   2    1   10 1
   3    1   17 1
   4    2    3 1
   5    2   15 2
   6    3    4 2
   7    3   42 1
   8    4    5 1
   9    4   43 1
  10    5    6 ar
  11    5   10 ar
  12    6    7 ar
  13    6   44 1
  14    7    8 ar
  15    8    9 ar
  16    8   14 ar
  17    9   10 ar
  18    9   11 ar
  19   11   12 ar
  20   11   45 1
  21   12   13 ar
  22   12   16 1
  23   13   14 ar
  24   13   46 1
  25   14   47 1
  26   16   29 ar
  27   16   33 ar
  28   17   18 ar
  29   17   22 ar
  30   18   19 ar
  31   18   48 1
  32   19   20 ar
  33   19   49 1
  34   20   21 ar
  35   20   23 1
  36   21   22 ar
  37   21   38 1
  38   22   50 1
  39   23   24 1
  40   23   25 1
  41   24   28 1
  42   24   51 1
  43   24   52 1
  44   25   26 1
  45   25   53 1
  46   25   54 1
  47   26   27 1
  48   26   55 1
  49   26   56 1
  50   27   28 1
  51   27   57 1
  52   28   58 1
  53   28   59 1
  54   29   30 ar
  55   29   60 1
  56   30   31 ar
  57   30   61 1
  58   31   32 ar
  59   31   34 1
  60   32   33 ar
  61   32   37 1
  62   33   62 1
  63   34   35 1
  64   35   36 1
  65   35   63 1
  66   35   64 1
  67   36   37 1
  68   36   65 1
  69   36   66 1
  70   38   39 1
  71   38   40 1
  72   38   41 1

#	End of record

