#	Name: ASD02508205
#	Creating user name:	WinNT
#	Creation time:	15. 06. 2019 20:24

#	Modifying user name:	WinNT
#	Modification time:	15. 06. 2019 20:24

#	Program:	/corina/corina34_cracker 3.40 0067  02.08.2006

@<TRIPOS>MOLECULE
ASD02508205
  43   46    0    0    0
SMALL
NO_CHARGES


@<TRIPOS>ATOM
   1 C1             0.2482     0.6125    -0.3446 C.ar    
   2 C2             0.0011    -0.7453    -0.5455 C.ar    
   3 C3            -1.2922    -1.2320    -0.4367 C.ar    
   4 C4            -2.3285    -0.3718    -0.1303 C.ar    
   5 C5            -2.0823     0.9756     0.0685 C.ar    
   6 C6            -0.7960     1.4689    -0.0324 C.ar    
   7 S7            -3.9717    -0.9926     0.0075 S.o2    
   8 N8            -4.2470    -1.2990     1.6115 N.am    
   9 C9            -3.4664    -2.2418     2.2872 C.ar    
  10 N10            1.6195     0.7979    -0.5179 N.am    
  11 C11            2.1571    -0.4032    -0.8092 C.2     
  12 O12            1.1896    -1.3334    -0.8271 O.3     
  13 O13           -4.8361     0.0768    -0.3509 O.2     
  14 O14           -3.9810    -2.2528    -0.6490 O.2     
  15 C15            2.3435     2.0664    -0.4042 C.3     
  16 O16            3.3359    -0.6119    -1.0228 O.2     
  17 C17           -2.9427    -1.9429     3.5382 C.ar    
  18 C18           -3.2184    -3.4808     1.7109 C.ar    
  19 C19           -2.4474    -4.4109     2.3804 C.ar    
  20 C20           -1.9223    -4.1089     3.6255 C.ar    
  21 C21           -2.1722    -2.8761     4.2041 C.ar    
  22 F22           -1.1691    -5.0205     4.2789 F       
  23 C23            2.7995     2.2587     1.0192 C.ar    
  24 C24            4.0346     1.7841     1.4194 C.ar    
  25 C25            4.4530     1.9604     2.7250 C.ar    
  26 C26            3.6363     2.6117     3.6305 C.ar    
  27 C27            2.4016     3.0872     3.2301 C.ar    
  28 C28            1.9851     2.9147     1.9233 C.ar    
  29 H29           -1.4894    -2.2825    -0.5917 H       
  30 H30           -2.8976     1.6425     0.3071 H       
  31 H31           -0.6056     2.5205     0.1234 H       
  32 H32           -4.9499    -0.8243     2.0822 H       
  33 H33            3.2105     2.0504    -1.0645 H       
  34 H34            1.6851     2.8872    -0.6888 H       
  35 H35           -3.1374    -0.9815     3.9899 H       
  36 H36           -3.6284    -3.7170     0.7400 H       
  37 H37           -2.2543    -5.3745     1.9325 H       
  38 H38           -1.7616    -2.6426     5.1754 H       
  39 H39            4.6726     1.2752     0.7120 H       
  40 H40            5.4176     1.5889     3.0378 H       
  41 H41            3.9629     2.7488     4.6507 H       
  42 H42            1.7635     3.5957     3.9376 H       
  43 H43            1.0205     3.2861     1.6105 H       
@<TRIPOS>BOND
   1    1    2 ar
   2    1   10 1
   3    1    6 ar
   4    2    3 ar
   5    2   12 1
   6    3    4 ar
   7    3   29 1
   8    4    5 ar
   9    4    7 1
  10    5    6 ar
  11    5   30 1
  12    6   31 1
  13    7    8 am
  14    7   13 2
  15    7   14 2
  16    8    9 1
  17    8   32 1
  18    9   17 ar
  19    9   18 ar
  20   10   11 am
  21   10   15 1
  22   11   12 1
  23   11   16 2
  24   15   23 1
  25   15   33 1
  26   15   34 1
  27   17   21 ar
  28   17   35 1
  29   18   19 ar
  30   18   36 1
  31   19   20 ar
  32   19   37 1
  33   20   21 ar
  34   20   22 1
  35   21   38 1
  36   23   24 ar
  37   23   28 ar
  38   24   25 ar
  39   24   39 1
  40   25   26 ar
  41   25   40 1
  42   26   27 ar
  43   26   41 1
  44   27   28 ar
  45   27   42 1
  46   28   43 1

#	End of record

