#	Name: ASD01811131
#	Creating user name:	WinNT
#	Creation time:	15. 06. 2019 19:26

#	Modifying user name:	WinNT
#	Modification time:	15. 06. 2019 19:26

#	Program:	/corina/corina34_cracker 3.40 0067  02.08.2006

@<TRIPOS>MOLECULE
ASD01811131
  52   56    0    0    0
SMALL
NO_CHARGES


@<TRIPOS>ATOM
   1 C1             8.0739    -0.4366     1.8181 C.2     
   2 C2             7.0699     0.1398     1.0283 C.2     
   3 C3             5.9714    -0.5974     0.6953 C.2     
   4 C4             5.8652    -1.9223     1.1499 C.2     
   5 N5             6.8605    -2.4598     1.9201 N.am    
   6 C6             7.9539    -1.7136     2.2463 C.2     
   7 C7             4.7372    -2.6820     0.8090 C.2     
   8 C8             4.6240    -3.9700     1.2458 C.2     
   9 C9             5.6496    -4.5195     2.0372 C.2     
  10 C10            6.7713    -3.7300     2.3633 C.2     
  11 O11            7.6649    -4.1983     3.0483 O.2     
  12 C12            5.5521    -5.8991     2.5190 C.2     
  13 O13            6.5388    -6.4201     3.2773 O.3     
  14 O14            4.5815    -6.5752     2.2354 O.2     
  15 C15            3.6492    -2.0760    -0.0395 C.3     
  16 N16            3.8454    -2.4688    -1.4413 N.3     
  17 C17            5.0836    -1.8870    -1.9837 C.3     
  18 C18            5.4271    -2.6068    -3.2881 C.3     
  19 C19            4.2213    -2.6377    -4.1917 C.ar    
  20 C20            2.9521    -2.3932    -3.7131 C.ar    
  21 C21            2.6970    -2.0742    -2.2633 C.3     
  22 C22            4.4091    -2.9218    -5.5361 C.ar    
  23 C23            3.3314    -2.9624    -6.3975 C.ar    
  24 C24            2.0577    -2.7194    -5.9176 C.ar    
  25 C25            1.8697    -2.4366    -4.5799 C.ar    
  26 C26            1.4721    -2.8183    -1.7975 C.ar    
  27 C27            0.2713    -2.1544    -1.5984 C.ar    
  28 C28           -0.8311    -2.8700    -1.1713 C.ar    
  29 N29           -0.7497    -4.1680    -0.9532 N.ar    
  30 C30            0.3756    -4.8319    -1.1321 C.ar    
  31 C31            1.5177    -4.1841    -1.5635 C.ar    
  32 H32            8.9484     0.1396     2.0819 H       
  33 H33            7.1650     1.1598     0.6863 H       
  34 H34            5.1898    -0.1659     0.0875 H       
  35 H35            8.7336    -2.1475     2.8547 H       
  36 H36            3.7573    -4.5603     0.9874 H       
  37 H37            6.4298    -7.3347     3.5717 H       
  38 H38            2.6785    -2.4324     0.3053 H       
  39 H39            3.6873    -0.9897     0.0422 H       
  40 H40            4.9342    -0.8253    -2.1797 H       
  41 H41            5.8947    -2.0196    -1.2677 H       
  42 H42            6.2406    -2.0811    -3.7881 H       
  43 H43            5.7397    -3.6273    -3.0668 H       
  44 H44            2.5271    -1.0030    -2.1546 H       
  45 H45            5.4039    -3.1119    -5.9110 H       
  46 H46            3.4827    -3.1830    -7.4439 H       
  47 H47            1.2117    -2.7509    -6.5881 H       
  48 H48            0.8744    -2.2471    -4.2059 H       
  49 H49            0.1984    -1.0913    -1.7746 H       
  50 H50           -1.7702    -2.3603    -1.0138 H       
  51 H51            0.4041    -5.8949    -0.9429 H       
  52 H52            2.4362    -4.7334    -1.7084 H       
@<TRIPOS>BOND
   1    1    2 1
   2    1    6 2
   3    1   32 1
   4    2    3 2
   5    2   33 1
   6    3    4 1
   7    3   34 1
   8    4    5 1
   9    4    7 2
  10    5    6 1
  11    5   10 am
  12    6   35 1
  13    7    8 1
  14    7   15 1
  15    8    9 2
  16    8   36 1
  17    9   10 1
  18    9   12 1
  19   10   11 2
  20   12   13 1
  21   12   14 2
  22   13   37 1
  23   15   16 1
  24   15   38 1
  25   15   39 1
  26   16   17 1
  27   16   21 1
  28   17   18 1
  29   17   40 1
  30   17   41 1
  31   18   19 1
  32   18   42 1
  33   18   43 1
  34   19   20 ar
  35   19   22 ar
  36   20   21 1
  37   20   25 ar
  38   21   26 1
  39   21   44 1
  40   22   23 ar
  41   22   45 1
  42   23   24 ar
  43   23   46 1
  44   24   25 ar
  45   24   47 1
  46   25   48 1
  47   26   27 ar
  48   26   31 ar
  49   27   28 ar
  50   27   49 1
  51   28   29 ar
  52   28   50 1
  53   29   30 ar
  54   30   31 ar
  55   30   51 1
  56   31   52 1

#	End of record

