#	Name: ASD01900459
#	Creating user name:	WinNT
#	Creation time:	15. 06. 2019 19:51

#	Modifying user name:	WinNT
#	Modification time:	15. 06. 2019 19:51

#	Program:	/corina/corina34_cracker 3.40 0067  02.08.2006

@<TRIPOS>MOLECULE
ASD01900459
  28   30    0    0    0
SMALL
NO_CHARGES


@<TRIPOS>ATOM
   1 C1             0.9302    -3.6063    -1.4563 C.ar    
   2 C2             0.4778    -2.5779    -0.6030 C.ar    
   3 N3             2.2338    -3.8199    -1.5904 N.ar    
   4 N4             1.3574    -1.8318     0.0597 N.ar    
   5 C5             2.6468    -2.0591    -0.0859 C.ar    
   6 C6             3.0928    -3.0714    -0.9270 C.ar    
   7 N7            -1.3249    -3.5524    -1.5029 N.2     
   8 N8            -0.1828    -4.1902    -1.9968 N.pl3   
   9 C9            -0.9847    -2.6007    -0.6750 C.2     
  10 N10           -1.8583    -1.7520     0.0110 N.pl3   
  11 C11           -3.2389    -1.9589    -0.0666 C.ar    
  12 C12           -3.7402    -3.2382    -0.2716 C.ar    
  13 C13           -5.1041    -3.4402    -0.3475 C.ar    
  14 C14           -5.9721    -2.3685    -0.2200 C.ar    
  15 C15           -5.4748    -1.0925    -0.0161 C.ar    
  16 C16           -4.1114    -0.8866     0.0667 C.ar    
  17 C17           -5.6486    -4.8277    -0.5699 C.3     
  18 F18           -7.3061    -2.5684    -0.2950 F       
  19 H19            3.3621    -1.4539     0.4512 H       
  20 H20            4.1526    -3.2473    -1.0374 H       
  21 H21           -0.1801    -4.9299    -2.6242 H       
  22 H22           -1.5067    -1.0197     0.5410 H       
  23 H23           -3.0638    -4.0741    -0.3719 H       
  24 H24           -6.1535    -0.2582     0.0824 H       
  25 H25           -3.7241     0.1082     0.2302 H       
  26 H26           -5.8143    -5.3115     0.3927 H       
  27 H27           -6.5920    -4.7652    -1.1123 H       
  28 H28           -4.9333    -5.4099    -1.1508 H       
@<TRIPOS>BOND
   1    1    2 ar
   2    1    3 ar
   3    1    8 1
   4    2    4 ar
   5    2    9 1
   6    3    6 ar
   7    4    5 ar
   8    5    6 ar
   9    5   19 1
  10    6   20 1
  11    7    8 1
  12    7    9 2
  13    8   21 1
  14    9   10 1
  15   10   11 1
  16   10   22 1
  17   11   12 ar
  18   11   16 ar
  19   12   13 ar
  20   12   23 1
  21   13   14 ar
  22   13   17 1
  23   14   15 ar
  24   14   18 1
  25   15   16 ar
  26   15   24 1
  27   16   25 1
  28   17   26 1
  29   17   27 1
  30   17   28 1

#	End of record

