#	Name: ASD01917095
#	Creating user name:	WinNT
#	Creation time:	15. 06. 2019 20:08

#	Modifying user name:	WinNT
#	Modification time:	15. 06. 2019 20:08

#	Program:	/corina/corina34_cracker 3.40 0067  02.08.2006

@<TRIPOS>MOLECULE
ASD01917095
  44   46    0    0    0
SMALL
NO_CHARGES


@<TRIPOS>ATOM
   1 C1            -0.0184     1.5028     0.0103 C.3     
   2 C2             0.0021    -0.0041     0.0020 C.2     
   3 N3             0.5336    -0.7572    -0.9242 N.2     
   4 C4             0.3693    -2.0487    -0.6080 C.2     
   5 N5            -0.2758    -2.1240     0.5354 N.2     
   6 N6            -0.5186    -0.8043     0.9497 N.pl3   
   7 C7            -1.2101    -0.3821     2.1703 C.3     
   8 C8            -0.2098    -0.2295     3.2871 C.2     
   9 O9            -0.6191     0.1522     4.5071 O.3     
  10 O10            0.9606    -0.4506     3.0842 O.2     
  11 C11            0.8372    -3.2032    -1.4148 C.ar    
  12 C12            1.4170     2.0324    -0.0006 C.3     
  13 C13            1.5122    -2.9891    -2.6147 C.ar    
  14 C14            1.9466    -4.0646    -3.3637 C.ar    
  15 C15            1.7139    -5.3549    -2.9265 C.ar    
  16 C16            1.0421    -5.5767    -1.7320 C.ar    
  17 C17            0.6080    -4.5034    -0.9717 C.ar    
  18 C18            1.3963     3.5622     0.0079 C.3     
  19 C19            0.6563     4.0690    -1.2317 C.3     
  20 C20           -0.7791     3.5394    -1.2208 C.3     
  21 C21           -0.7584     2.0096    -1.2292 C.3     
  22 O22            0.8154    -6.8471    -1.3058 O.3     
  23 C23            1.2960    -7.9057    -2.1368 C.3     
  24 H24           -0.5286     1.8543     0.9071 H       
  25 H25           -1.7072     0.5719     1.9948 H       
  26 H26           -1.9510    -1.1325     2.4462 H       
  27 H27            0.0590     0.2364     5.1913 H       
  28 H28            1.9442     1.6713     0.8825 H       
  29 H29            1.9272     1.6808    -0.8974 H       
  30 H30            1.6952    -1.9820    -2.9592 H       
  31 H31            2.4693    -3.8972    -4.2938 H       
  32 H32            2.0553    -6.1930    -3.5160 H       
  33 H33            0.0856    -4.6745    -0.0421 H       
  34 H34            0.8861     3.9137     0.9047 H       
  35 H35            2.4189     3.9395     0.0001 H       
  36 H36            0.6415     5.1589    -1.2257 H       
  37 H37            1.1665     3.7175    -2.1285 H       
  38 H38           -1.2893     3.8910    -0.3240 H       
  39 H39           -1.3063     3.9005    -2.1039 H       
  40 H40           -0.2482     1.6581    -2.1260 H       
  41 H41           -1.7809     1.6323    -1.2215 H       
  42 H42            0.8274    -7.8382    -3.1186 H       
  43 H43            2.3774    -7.8213    -2.2437 H       
  44 H44            1.0497    -8.8651    -1.6819 H       
@<TRIPOS>BOND
   1    1    2 1
   2    1   12 1
   3    1   21 1
   4    1   24 1
   5    2    3 2
   6    2    6 1
   7    3    4 1
   8    4    5 2
   9    4   11 1
  10    5    6 1
  11    6    7 1
  12    7    8 1
  13    7   25 1
  14    7   26 1
  15    8    9 1
  16    8   10 2
  17    9   27 1
  18   11   13 ar
  19   11   17 ar
  20   12   18 1
  21   12   28 1
  22   12   29 1
  23   13   14 ar
  24   13   30 1
  25   14   15 ar
  26   14   31 1
  27   15   16 ar
  28   15   32 1
  29   16   17 ar
  30   16   22 1
  31   17   33 1
  32   18   19 1
  33   18   34 1
  34   18   35 1
  35   19   20 1
  36   19   36 1
  37   19   37 1
  38   20   21 1
  39   20   38 1
  40   20   39 1
  41   21   40 1
  42   21   41 1
  43   22   23 1
  44   23   42 1
  45   23   43 1
  46   23   44 1

#	End of record

