#	Name: ASD07301356
#	Creating user name:	WinNT
#	Creation time:	15. 06. 2019 21:11

#	Modifying user name:	WinNT
#	Modification time:	15. 06. 2019 21:11

#	Program:	/corina/corina34_cracker 3.40 0067  02.08.2006

@<TRIPOS>MOLECULE
ASD07301356
  38   40    0    0    0
SMALL
NO_CHARGES


@<TRIPOS>ATOM
   1 C1             0.0310     1.5416    -0.1382 C.2     
   2 C2             0.0387     0.1004    -0.4348 C.2     
   3 C3             1.3007    -0.5475    -0.4699 C.2     
   4 C4             2.4029     0.2016    -0.2293 C.2     
   5 N5             2.2979     1.5271     0.0359 N.pl3   
   6 N6             1.1784     2.1501     0.0769 N.2     
   7 C7            -1.2392     2.2924    -0.0888 C.2     
   8 O8            -2.2921     1.7201    -0.2943 O.2     
   9 N9            -1.2317     3.6122     0.1840 N.am    
  10 C10            3.4703     2.2512     0.2768 C.ar    
  11 C11            3.4214     3.6341     0.4012 C.ar    
  12 C12            4.5804     4.3457     0.6394 C.ar    
  13 C13            5.7893     3.6834     0.7538 C.ar    
  14 C14            5.8416     2.3072     0.6305 C.ar    
  15 C15            4.6851     1.5887     0.3978 C.ar    
  16 C16            4.5283     5.8457     0.7745 C.3     
  17 F17            4.3211     6.1863     2.1155 F       
  18 F18            5.7373     6.3958     0.3352 F       
  19 F19            3.4782     6.3477    -0.0017 F       
  20 C20           -2.4233     4.3425     0.1379 C.ar    
  21 C21           -3.6139     3.7585     0.5509 C.ar    
  22 C22           -4.7890     4.4827     0.5045 C.ar    
  23 C23           -4.7811     5.7877     0.0471 C.ar    
  24 C24           -3.5975     6.3720    -0.3652 C.ar    
  25 C25           -2.4179     5.6554    -0.3155 C.ar    
  26 O26           -0.9971    -0.5123    -0.6417 O.2     
  27 H27            1.3796    -1.6037    -0.6812 H       
  28 H28            3.3778    -0.2627    -0.2485 H       
  29 H29           -0.3997     4.0556     0.4124 H       
  30 H30            2.4779     4.1519     0.3113 H       
  31 H31            6.6945     4.2425     0.9394 H       
  32 H32            6.7871     1.7931     0.7203 H       
  33 H33            4.7260     0.5134     0.3061 H       
  34 H34           -3.6209     2.7391     0.9075 H       
  35 H35           -5.7151     4.0292     0.8254 H       
  36 H36           -5.7014     6.3517     0.0115 H       
  37 H37           -3.5948     7.3911    -0.7225 H       
  38 H38           -1.4931     6.1137    -0.6335 H       
@<TRIPOS>BOND
   1    1    2 1
   2    1    6 2
   3    1    7 1
   4    2    3 1
   5    2   26 2
   6    3    4 2
   7    3   27 1
   8    4    5 1
   9    4   28 1
  10    5    6 1
  11    5   10 1
  12    7    8 2
  13    7    9 am
  14    9   20 1
  15    9   29 1
  16   10   11 ar
  17   10   15 ar
  18   11   12 ar
  19   11   30 1
  20   12   13 ar
  21   12   16 1
  22   13   14 ar
  23   13   31 1
  24   14   15 ar
  25   14   32 1
  26   15   33 1
  27   16   17 1
  28   16   18 1
  29   16   19 1
  30   20   21 ar
  31   20   25 ar
  32   21   22 ar
  33   21   34 1
  34   22   23 ar
  35   22   35 1
  36   23   24 ar
  37   23   36 1
  38   24   25 ar
  39   24   37 1
  40   25   38 1

#	End of record

