#	Name: ASD01148399
#	Creating user name:	WinNT
#	Creation time:	15. 06. 2019 19:02

#	Modifying user name:	WinNT
#	Modification time:	15. 06. 2019 19:02

#	Program:	/corina/corina34_cracker 3.40 0067  02.08.2006

@<TRIPOS>MOLECULE
ASD01148399
  52   55    0    0    0
SMALL
NO_CHARGES


@<TRIPOS>ATOM
   1 C1             0.3639     1.8414     0.0681 C.ar    
   2 C2             0.4623     0.4636    -0.0071 C.ar    
   3 C3            -0.6829    -0.3073    -0.0941 C.ar    
   4 C4            -1.9261     0.2999    -0.1059 C.ar    
   5 C5            -2.0238     1.6766    -0.0307 C.ar    
   6 C6            -0.8800     2.4472     0.0615 C.ar    
   7 C7            -3.3781     2.3374    -0.0435 C.3     
   8 O8            -4.3702     1.4934     0.5753 O.3     
   9 C9            -3.3981     3.5775     0.8817 C.3     
  10 C10           -3.9242     3.0077     2.1854 C.2     
  11 N11           -4.4446     1.8519     1.9409 N.2     
  12 C12           -3.8528     3.6621     3.5066 C.ar    
  13 C13           -4.3792     3.0230     4.6323 C.ar    
  14 C14           -3.2540     4.9179     3.6327 C.ar    
  15 C15           -3.1875     5.5281     4.8650 C.ar    
  16 C16           -3.7184     4.8916     5.9891 C.ar    
  17 C17           -4.3127     3.6333     5.8641 C.ar    
  18 C18           -3.6462     5.5464     7.3121 C.2     
  19 O19           -4.2045     5.0463     8.2692 O.2     
  20 N20           -2.9614     6.6981     7.4575 N.am    
  21 C21           -4.8859     2.9469     7.0770 C.3     
  22 C22           -3.7889     2.7104    -1.4694 C.3     
  23 F23           -3.8287     1.5569    -2.2600 F       
  24 F24           -5.0546     3.3060    -1.4494 F       
  25 F25           -2.8588     3.6093    -2.0026 F       
  26 Cl26          -0.5604    -2.0364    -0.1891 Cl      
  27 Cl27           1.8006     2.8097     0.1779 Cl      
  28 C28           -2.8897     7.3472     8.7689 C.3     
  29 C29           -2.0716     8.6082     8.6613 C.ar    
  30 N30           -0.7583     8.5433     8.7591 N.ar    
  31 C31           -0.0022     9.6203     8.6711 C.ar    
  32 C32           -0.5666    10.8657     8.4717 C.ar    
  33 C33           -1.9449    10.9736     8.3639 C.ar    
  34 C34           -2.7063     9.8188     8.4555 C.ar    
  35 H35            1.4329    -0.0099     0.0017 H       
  36 H36           -2.8203    -0.3019    -0.1741 H       
  37 H37           -0.9569     3.5228     0.1202 H       
  38 H38           -2.3932     3.9790     1.0125 H       
  39 H39           -4.0729     4.3399     0.4925 H       
  40 H40           -4.8386     2.0503     4.5356 H       
  41 H41           -2.8428     5.4098     2.7636 H       
  42 H42           -2.7246     6.4990     4.9625 H       
  43 H43           -2.5159     7.0972     6.6939 H       
  44 H44           -5.8930     3.3198     7.2636 H       
  45 H45           -4.9232     1.8716     6.9023 H       
  46 H46           -4.2561     3.1527     7.9425 H       
  47 H47           -3.8959     7.5946     9.1073 H       
  48 H48           -2.4220     6.6706     9.4842 H       
  49 H49            1.0704     9.5278     8.7561 H       
  50 H50            0.0578    11.7441     8.4012 H       
  51 H51           -2.4138    11.9340     8.2083 H       
  52 H52           -3.7823     9.8654     8.3756 H       
@<TRIPOS>BOND
   1    1    2 ar
   2    1   27 1
   3    1    6 ar
   4    2    3 ar
   5    2   35 1
   6    3    4 ar
   7    3   26 1
   8    4    5 ar
   9    4   36 1
  10    5    6 ar
  11    5    7 1
  12    6   37 1
  13    7    8 1
  14    7    9 1
  15    7   22 1
  16    8   11 1
  17    9   10 1
  18    9   38 1
  19    9   39 1
  20   10   11 2
  21   10   12 1
  22   12   13 ar
  23   12   14 ar
  24   13   17 ar
  25   13   40 1
  26   14   15 ar
  27   14   41 1
  28   15   16 ar
  29   15   42 1
  30   16   17 ar
  31   16   18 1
  32   17   21 1
  33   18   19 2
  34   18   20 am
  35   20   28 1
  36   20   43 1
  37   21   44 1
  38   21   45 1
  39   21   46 1
  40   22   23 1
  41   22   24 1
  42   22   25 1
  43   28   29 1
  44   28   47 1
  45   28   48 1
  46   29   30 ar
  47   29   34 ar
  48   30   31 ar
  49   31   32 ar
  50   31   49 1
  51   32   33 ar
  52   32   50 1
  53   33   34 ar
  54   33   51 1
  55   34   52 1

#	End of record

