#	Name: ASD03092167
#	Creating user name:	WinNT
#	Creation time:	15. 06. 2019 20:32

#	Modifying user name:	WinNT
#	Modification time:	15. 06. 2019 20:32

#	Program:	/corina/corina34_cracker 3.40 0067  02.08.2006

@<TRIPOS>MOLECULE
ASD03092167
  51   54    0    0    0
SMALL
NO_CHARGES


@<TRIPOS>ATOM
   1 N1             0.2845     0.9475    -0.3778 N.pl3   
   2 C2             0.0914    -0.3119     0.1067 C.2     
   3 C3            -1.2514    -0.4774     0.2927 C.2     
   4 C4            -1.8862     0.7117    -0.0888 C.2     
   5 N5            -0.9687     1.5638    -0.4837 N.2     
   6 N6            -3.2649     0.9525    -0.0505 N.pl3   
   7 C7            -3.7604     2.2243    -0.3480 C.ar    
   8 C8            -5.0306     2.3663    -0.8897 C.ar    
   9 C9            -5.5187     3.6300    -1.1830 C.ar    
  10 C10           -4.7373     4.7497    -0.9347 C.ar    
  11 C11           -2.9845     3.3498    -0.0966 C.ar    
  12 C12            1.1435    -1.3154     0.3807 C.ar    
  13 C13            1.5745     1.5513    -0.7208 C.3     
  14 C14            0.9080    -2.3444     1.2925 C.ar    
  15 C15            1.8911    -3.2778     1.5473 C.ar    
  16 C16            3.1163    -3.1978     0.8995 C.ar    
  17 C17            3.3562    -2.1751    -0.0134 C.ar    
  18 C18            2.3717    -1.2385    -0.2763 C.ar    
  19 C19           -3.4727     4.6067    -0.3953 C.ar    
  20 C20            1.8354     1.3756    -2.1946 C.2     
  21 N21            2.9706     1.8554    -2.7399 N.am    
  22 O22            1.0237     0.8024    -2.8900 O.2     
  23 O23            4.0747    -4.1254     1.1720 O.3     
  24 C24            5.1491    -4.2362     0.2325 C.3     
  25 C25            5.6426    -2.8223    -0.1028 C.3     
  26 O26            4.5493    -2.0872    -0.6630 O.3     
  27 C27            3.2242     1.6846    -4.1726 C.3     
  28 O28           -6.7615     3.7724    -1.7138 O.3     
  29 C29           -7.1999     5.1040    -1.9910 C.3     
  30 F30           -6.3286     5.7002    -2.9089 F       
  31 F31           -8.4907     5.0674    -2.5293 F       
  32 F32           -7.2096     5.8479    -0.8063 F       
  33 H33           -1.7373    -1.3664     0.6668 H       
  34 H34           -3.8761     0.2363     0.1826 H       
  35 H35           -5.6371     1.4938    -1.0826 H       
  36 H36           -5.1177     5.7342    -1.1637 H       
  37 H37           -1.9978     3.2411     0.3289 H       
  38 H38            1.5537     2.6141    -0.4797 H       
  39 H39            2.3663     1.0649    -0.1511 H       
  40 H40           -0.0436    -2.4100     1.7991 H       
  41 H41            1.7071    -4.0737     2.2537 H       
  42 H42            2.5574    -0.4433    -0.9832 H       
  43 H43           -2.8667     5.4799    -0.2035 H       
  44 H44            3.6198     2.3138    -2.1837 H       
  45 H45            5.9622    -4.8150     0.6706 H       
  46 H46            4.7953    -4.7267    -0.6744 H       
  47 H47            5.9902    -2.3293     0.8051 H       
  48 H48            6.4565    -2.8788    -0.8257 H       
  49 H49            3.2450     0.6218    -4.4138 H       
  50 H50            2.4324     2.1710    -4.7423 H       
  51 H51            4.1840     2.1339    -4.4278 H       
@<TRIPOS>BOND
   1    1    2 1
   2    1   13 1
   3    1    5 1
   4    2    3 2
   5    2   12 1
   6    3    4 1
   7    3   33 1
   8    4    5 2
   9    4    6 1
  10    6    7 1
  11    6   34 1
  12    7    8 ar
  13    7   11 ar
  14    8    9 ar
  15    8   35 1
  16    9   10 ar
  17    9   28 1
  18   10   19 ar
  19   10   36 1
  20   11   19 ar
  21   11   37 1
  22   12   14 ar
  23   12   18 ar
  24   13   20 1
  25   13   38 1
  26   13   39 1
  27   14   15 ar
  28   14   40 1
  29   15   16 ar
  30   15   41 1
  31   16   17 ar
  32   16   23 1
  33   17   18 ar
  34   17   26 1
  35   18   42 1
  36   19   43 1
  37   20   21 am
  38   20   22 2
  39   21   27 1
  40   21   44 1
  41   23   24 1
  42   24   25 1
  43   24   45 1
  44   24   46 1
  45   25   26 1
  46   25   47 1
  47   25   48 1
  48   27   49 1
  49   27   50 1
  50   27   51 1
  51   28   29 1
  52   29   30 1
  53   29   31 1
  54   29   32 1

#	End of record

