#	Name: ASD00060036
#	Creating user name:	WinNT
#	Creation time:	15. 06. 2019 18:29

#	Modifying user name:	WinNT
#	Modification time:	15. 06. 2019 18:29

#	Program:	/corina/corina34_cracker 3.40 0067  02.08.2006

@<TRIPOS>MOLECULE
ASD00060036
  45   47    0    0    0
SMALL
NO_CHARGES


@<TRIPOS>ATOM
   1 C1             5.8561     0.2390    -1.7429 C.ar    
   2 C2             6.7069    -0.2775    -0.7838 C.ar    
   3 C3             6.5246     0.0529     0.5433 C.ar    
   4 C4             5.4925     0.9005     0.9242 C.ar    
   5 C5             4.6412     1.4101    -0.0307 C.ar    
   6 C6             4.8283     1.0790    -1.3662 C.ar    
   7 C7             5.3601     1.2313     2.3877 C.3     
   8 C8             3.9708     1.7897     2.6887 C.3     
   9 C9             3.6810     2.9260     1.7011 C.3     
  10 C10            3.4911     2.3205     0.3118 C.3     
  11 C11            3.4127     3.4454    -0.7223 C.3     
  12 N12            2.2584     4.3041    -0.4253 N.3     
  13 C13            2.2204     5.4647    -1.3249 C.3     
  14 C14            1.9349     6.7103    -0.5261 C.ar    
  15 P15            0.9091     5.2267    -2.5688 P.3     
  16 O16           -0.4089     5.1952    -1.8963 O.2     
  17 O17            0.9440     6.4417    -3.6246 O.3     
  18 O18            1.1500     3.8358    -3.3430 O.3     
  19 C19            1.0959     6.6501     0.5709 C.ar    
  20 C20            2.5167     7.9112    -0.8876 C.ar    
  21 C21            2.2560     9.0540    -0.1556 C.ar    
  22 C22            1.4114     8.9960     0.9400 C.ar    
  23 C23            0.8333     7.7917     1.3042 C.ar    
  24 F24            1.1561    10.1125     1.6567 F       
  25 H25            5.9980    -0.0105    -2.7841 H       
  26 H26            7.5115    -0.9377    -1.0722 H       
  27 H27            7.1897    -0.3512     1.2922 H       
  28 H28            4.1638     1.4820    -2.1161 H       
  29 H29            5.5196     0.3278     2.9763 H       
  30 H30            6.1119     1.9729     2.6580 H       
  31 H31            3.2257     1.0027     2.5716 H       
  32 H32            3.9426     2.1736     3.7085 H       
  33 H33            2.7733     3.4499     2.0005 H       
  34 H34            4.5195     3.6223     1.6866 H       
  35 H35            2.5627     1.7498     0.2923 H       
  36 H36            4.3263     4.0386    -0.6839 H       
  37 H37            3.2997     3.0163    -1.7179 H       
  38 H38            1.3969     3.7811    -0.4731 H       
  39 H39            3.1827     5.5674    -1.8265 H       
  40 H40            0.8056     7.3123    -3.2271 H       
  41 H41            1.0635     3.0531    -2.7818 H       
  42 H42            0.6451     5.7106     0.8548 H       
  43 H43            3.1755     7.9561    -1.7422 H       
  44 H44            2.7112     9.9918    -0.4377 H       
  45 H45            0.1775     7.7445     2.1610 H       
@<TRIPOS>BOND
   1    1    2 ar
   2    1    6 ar
   3    1   25 1
   4    2    3 ar
   5    2   26 1
   6    3    4 ar
   7    3   27 1
   8    4    5 ar
   9    4    7 1
  10    5    6 ar
  11    5   10 1
  12    6   28 1
  13    7    8 1
  14    7   29 1
  15    7   30 1
  16    8    9 1
  17    8   31 1
  18    8   32 1
  19    9   10 1
  20    9   33 1
  21    9   34 1
  22   10   11 1
  23   10   35 1
  24   11   12 1
  25   11   36 1
  26   11   37 1
  27   12   13 1
  28   12   38 1
  29   13   14 1
  30   13   15 1
  31   13   39 1
  32   14   20 ar
  33   14   19 ar
  34   15   16 2
  35   15   17 1
  36   15   18 1
  37   17   40 1
  38   18   41 1
  39   19   23 ar
  40   19   42 1
  41   20   21 ar
  42   20   43 1
  43   21   22 ar
  44   21   44 1
  45   22   23 ar
  46   22   24 1
  47   23   45 1

#	End of record

