#	Name: ASD02500772
#	Creating user name:	WinNT
#	Creation time:	15. 06. 2019 20:23

#	Modifying user name:	WinNT
#	Modification time:	15. 06. 2019 20:23

#	Program:	/corina/corina34_cracker 3.40 0067  02.08.2006

@<TRIPOS>MOLECULE
ASD02500772
  56   58    0    0    0
SMALL
NO_CHARGES


@<TRIPOS>ATOM
   1 O1            -0.0164     1.3569     0.0095 O.3     
   2 C2             0.0021    -0.0041     0.0020 C.ar    
   3 C3             1.1496    -0.6980    -0.3644 C.ar    
   4 O4             2.2825    -0.0325    -0.7194 O.3     
   5 C5             2.1357     1.3497    -1.0629 C.3     
   6 C6             1.2537     2.0177     0.0009 C.3     
   7 C7             1.1451    -2.0846    -0.3687 C.ar    
   8 C8             0.0032    -2.7746    -0.0070 C.ar    
   9 C9            -1.1371    -2.0847     0.3592 C.ar    
  10 C10           -1.1397    -0.7023     0.3645 C.ar    
  11 S11            0.0010    -4.5366    -0.0137 S.o2    
  12 O12           -1.3555    -4.9357    -0.1538 O.2     
  13 O13            1.0256    -4.9357    -0.9138 O.2     
  14 N14            0.4814    -5.0330     1.4914 N.am    
  15 C15           -0.3527    -4.7410     2.6599 C.3     
  16 C16            0.1005    -5.6048     3.8386 C.3     
  17 C17           -0.7706    -5.2999     5.0589 C.3     
  18 C18           -0.3174    -6.1637     6.2376 C.3     
  19 C19           -1.1884    -5.8588     7.4580 C.3     
  20 C20           -0.7353    -6.7226     8.6367 C.3     
  21 S21           -1.5644    -7.4584    11.1036 S.o2    
  22 O22           -2.4353    -6.8876    12.0705 O.2     
  23 O23           -1.7366    -8.7679    10.5794 O.2     
  24 N24           -1.5693    -6.4306     9.8052 N.am    
  25 C25            0.0531    -7.4103    11.8008 C.ar    
  26 C26            0.3539    -6.4897    12.7898 C.ar    
  27 C27            1.6254    -6.4528    13.3370 C.ar    
  28 C28            2.5939    -7.3346    12.8959 C.ar    
  29 C29            2.2947    -8.2541    11.9085 C.ar    
  30 C30            1.0223    -8.2967    11.3639 C.ar    
  31 F31            0.7284    -9.1997    10.4029 F       
  32 F32           -0.5926    -5.6274    13.2208 F       
  33 H33            3.1142     1.8295    -1.0831 H       
  34 H34            1.6625     1.4372    -2.0409 H       
  35 H35            1.1182     3.0714    -0.2428 H       
  36 H36            1.7236     1.9238     0.9800 H       
  37 H37            2.0346    -2.6260    -0.6551 H       
  38 H38           -2.0275    -2.6266     0.6418 H       
  39 H39           -2.0319    -0.1657     0.6516 H       
  40 H40            1.3150    -5.5171     1.5993 H       
  41 H41           -0.2544    -3.6877     2.9224 H       
  42 H42           -1.3944    -4.9618     2.4270 H       
  43 H43            0.0022    -6.6582     3.5761 H       
  44 H44            1.1422    -5.3841     4.0715 H       
  45 H45           -0.6723    -4.2466     5.3214 H       
  46 H46           -1.8123    -5.5207     4.8260 H       
  47 H47           -0.4156    -7.2170     5.9751 H       
  48 H48            0.7243    -5.9429     6.4705 H       
  49 H49           -1.0902    -4.8054     7.7205 H       
  50 H50           -2.2301    -6.0795     7.2251 H       
  51 H51           -0.8335    -7.7759     8.3742 H       
  52 H52            0.3064    -6.5018     8.8696 H       
  53 H53           -2.1245    -5.6353     9.8183 H       
  54 H54            1.8604    -5.7344    14.1084 H       
  55 H55            3.5855    -7.3048    13.3230 H       
  56 H56            3.0525    -8.9424    11.5644 H       
@<TRIPOS>BOND
   1    1    2 1
   2    1    6 1
   3    2    3 ar
   4    2   10 ar
   5    3    4 1
   6    3    7 ar
   7    4    5 1
   8    5    6 1
   9    5   33 1
  10    5   34 1
  11    6   35 1
  12    6   36 1
  13    7    8 ar
  14    7   37 1
  15    8    9 ar
  16    8   11 1
  17    9   10 ar
  18    9   38 1
  19   10   39 1
  20   11   12 2
  21   11   13 2
  22   11   14 am
  23   14   15 1
  24   14   40 1
  25   15   16 1
  26   15   41 1
  27   15   42 1
  28   16   17 1
  29   16   43 1
  30   16   44 1
  31   17   18 1
  32   17   45 1
  33   17   46 1
  34   18   19 1
  35   18   47 1
  36   18   48 1
  37   19   20 1
  38   19   49 1
  39   19   50 1
  40   20   24 1
  41   20   51 1
  42   20   52 1
  43   21   22 2
  44   21   23 2
  45   21   24 am
  46   21   25 1
  47   24   53 1
  48   25   26 ar
  49   25   30 ar
  50   26   27 ar
  51   26   32 1
  52   27   28 ar
  53   27   54 1
  54   28   29 ar
  55   28   55 1
  56   29   30 ar
  57   29   56 1
  58   30   31 1

#	End of record

