#	Name: ASD03090140
#	Creating user name:	WinNT
#	Creation time:	15. 06. 2019 20:28

#	Modifying user name:	WinNT
#	Modification time:	15. 06. 2019 20:28

#	Program:	/corina/corina34_cracker 3.40 0067  02.08.2006

@<TRIPOS>MOLECULE
ASD03090140
  39   41    0    0    0
SMALL
NO_CHARGES


@<TRIPOS>ATOM
   1 N1             0.4455     1.5148     1.4652 N.ar    
   2 C2             0.4074     0.1966     1.4312 C.ar    
   3 C3             1.5343    -0.5371     1.1218 C.ar    
   4 C4             2.7274     0.1378     0.8418 C.ar    
   5 C5             2.7217     1.5360     0.8890 C.ar    
   6 C6             1.5492     2.1899     1.2078 C.ar    
   7 C7             3.9615    -0.6068     0.5054 C.2     
   8 N8             5.7410    -3.4567    -0.5271 N.pl3   
   9 C9             4.8154    -4.4451    -0.8719 C.ar    
  10 C10            3.5995    -4.0915    -1.4427 C.ar    
  11 C11            2.6871    -5.0711    -1.7827 C.ar    
  12 C12            2.9830    -6.4025    -1.5555 C.ar    
  13 C13            4.1928    -6.7582    -0.9872 C.ar    
  14 C14            5.1117    -5.7843    -0.6498 C.ar    
  15 N15            4.0260    -1.8630     0.1121 N.2     
  16 C16            5.2976    -2.2026    -0.1025 C.2     
  17 N17            6.0659    -1.1677     0.1505 N.2     
  18 N18            5.2206    -0.1167     0.5417 N.pl3   
  19 C19            5.6241     1.2392     0.9223 C.3     
  20 C20            5.7293     2.1107    -0.3309 C.3     
  21 O21            6.1230     3.4333     0.0403 O.3     
  22 C22            4.5108    -8.2106    -0.7415 C.3     
  23 F23            3.4380    -9.0014    -1.1669 F       
  24 F24            5.6616    -8.5631    -1.4546 F       
  25 F25            4.7281    -8.4156     0.6253 F       
  26 H26           -0.5183    -0.3153     1.6489 H       
  27 H27            1.4960    -1.6161     1.0965 H       
  28 H28            3.6217     2.0951     0.6798 H       
  29 H29            1.5347     3.2691     1.2465 H       
  30 H30            6.6916    -3.6417    -0.5827 H       
  31 H31            3.3677    -3.0517    -1.6202 H       
  32 H32            1.7414    -4.7968    -2.2263 H       
  33 H33            2.2676    -7.1665    -1.8220 H       
  34 H34            6.0562    -6.0627    -0.2061 H       
  35 H35            4.8815     1.6631     1.5983 H       
  36 H36            6.5921     1.2034     1.4222 H       
  37 H37            6.4719     1.6868    -1.0069 H       
  38 H38            4.7614     2.1465    -0.8308 H       
  39 H39            6.2097     4.0419    -0.7061 H       
@<TRIPOS>BOND
   1    1    2 ar
   2    1    6 ar
   3    2    3 ar
   4    2   26 1
   5    3    4 ar
   6    3   27 1
   7    4    5 ar
   8    4    7 1
   9    5    6 ar
  10    5   28 1
  11    6   29 1
  12    7   15 2
  13    7   18 1
  14    8    9 1
  15    8   16 1
  16    8   30 1
  17    9   10 ar
  18    9   14 ar
  19   10   11 ar
  20   10   31 1
  21   11   12 ar
  22   11   32 1
  23   12   13 ar
  24   12   33 1
  25   13   14 ar
  26   13   22 1
  27   14   34 1
  28   15   16 1
  29   16   17 2
  30   17   18 1
  31   18   19 1
  32   19   20 1
  33   19   35 1
  34   19   36 1
  35   20   21 1
  36   20   37 1
  37   20   38 1
  38   21   39 1
  39   22   23 1
  40   22   24 1
  41   22   25 1

#	End of record

