#	Name: ASD01200315
#	Creating user name:	WinNT
#	Creation time:	15. 06. 2019 19:08

#	Modifying user name:	WinNT
#	Modification time:	15. 06. 2019 19:08

#	Program:	/corina/corina34_cracker 3.40 0067  02.08.2006

@<TRIPOS>MOLECULE
ASD01200315
  22   23    0    0    0
SMALL
NO_CHARGES


@<TRIPOS>ATOM
   1 C1             0.0947     1.2374     0.1059 C.ar    
   2 C2             0.3047    -0.0942     0.4744 C.ar    
   3 C3            -0.7370    -0.9638     0.5871 C.ar    
   4 C4            -2.0424    -0.5200     0.3307 C.ar    
   5 C5            -2.2569     0.8318    -0.0429 C.ar    
   6 C6            -1.1657     1.7043    -0.1461 C.ar    
   7 N7            -3.1007    -1.3355     0.4271 N.ar    
   8 C8            -4.3072    -0.8858     0.1796 C.ar    
   9 N9            -4.5496     0.3685    -0.1718 N.ar    
  10 C10           -3.5777     1.2519    -0.2952 C.ar    
  11 Cl11          -3.9176     2.8907    -0.7563 Cl      
  12 O12            1.1559     2.0804     0.0022 O.3     
  13 O13            1.6117     1.1919    -1.9695 O.2     
  14 C14            1.9270     1.9582    -1.0901 C.2     
  15 C15            3.1856     2.7768    -1.2193 C.3     
  16 H16            1.3089    -0.4390     0.6724 H       
  17 H17           -0.5588    -1.9902     0.8721 H       
  18 H18           -1.3178     2.7352    -0.4298 H       
  19 H19           -5.1401    -1.5680     0.2655 H       
  20 H20            3.3032     3.4044    -0.3359 H       
  21 H21            4.0442     2.1113    -1.3090 H       
  22 H22            3.1199     3.4066    -2.1065 H       
@<TRIPOS>BOND
   1    1    2 ar
   2    1   12 1
   3    1    6 ar
   4    2    3 ar
   5    2   16 1
   6    3    4 ar
   7    3   17 1
   8    4    5 ar
   9    4    7 ar
  10    5    6 ar
  11    5   10 ar
  12    6   18 1
  13    7    8 ar
  14    8    9 ar
  15    8   19 1
  16    9   10 ar
  17   10   11 1
  18   12   14 1
  19   13   14 2
  20   14   15 1
  21   15   20 1
  22   15   21 1
  23   15   22 1

#	End of record

