#	Name: ASD01150497
#	Creating user name:	WinNT
#	Creation time:	15. 06. 2019 19:04

#	Modifying user name:	WinNT
#	Modification time:	15. 06. 2019 19:04

#	Program:	/corina/corina34_cracker 3.40 0067  02.08.2006

@<TRIPOS>MOLECULE
ASD01150497
  41   43    0    0    0
SMALL
NO_CHARGES


@<TRIPOS>ATOM
   1 C1             2.0455     1.4038    -0.8411 C.ar    
   2 C2             2.0585     0.0229    -0.8454 C.ar    
   3 C3             0.3431    -0.0046     0.8287 C.ar    
   4 C4             0.3254     1.3763     0.8383 C.ar    
   5 C5             1.1777     2.0861     0.0020 C.ar    
   6 N6             1.1623     3.4852     0.0092 N.am    
   7 C7            -0.0113     4.1355    -0.0781 C.2     
   8 N8            -0.0630     5.4805    -0.0744 N.am    
   9 C9             1.0745     6.2002     0.0182 C.2     
  10 C10            2.3615     5.4949     0.1145 C.2     
  11 N11            2.3686     4.1879     0.1129 N.2     
  12 O12            1.0361     7.4166     0.0217 O.2     
  13 C13           -1.3553     6.1636    -0.1717 C.3     
  14 O14           -1.0435     3.4978    -0.1621 O.2     
  15 C15           -1.9093     6.3898     1.2114 C.2     
  16 O16            3.5243     6.1909     0.2090 O.3     
  17 C17            4.7305     5.4299     0.2986 C.3     
  18 C18            1.2084    -0.6807    -0.0119 C.ar    
  19 C19           -1.7338     7.5307     1.8810 C.2     
  20 S20           -2.5353     7.3765     3.4422 S.3     
  21 C21           -3.0301     5.7894     3.0430 C.2     
  22 N22           -2.6121     5.4775     1.8563 N.2     
  23 N23           -3.7765     4.9568     3.8687 N.am    
  24 C24           -4.1647     5.3866     5.0857 C.2     
  25 O25           -3.8627     6.4998     5.4604 O.2     
  26 C26           -4.9740     4.4839     5.9808 C.3     
  27 H27            2.7126     1.9527    -1.4894 H       
  28 H28            2.7330    -0.5082    -1.5007 H       
  29 H29           -0.3192    -0.5570     1.4787 H       
  30 H30           -0.3505     1.9037     1.4951 H       
  31 H31           -1.2224     7.1233    -0.6713 H       
  32 H32           -2.0491     5.5487    -0.7449 H       
  33 H33            5.5824     6.1063     0.3688 H       
  34 H34            4.6955     4.7965     1.1850 H       
  35 H35            4.8337     4.8066    -0.5896 H       
  36 H36            1.2200    -1.7606    -0.0177 H       
  37 H37           -1.1943     8.3970     1.5276 H       
  38 H38           -4.0180     4.0664     3.5689 H       
  39 H39           -4.4070     3.5768     6.1903 H       
  40 H40           -5.1922     5.0000     6.9157 H       
  41 H41           -5.9080     4.2218     5.4838 H       
@<TRIPOS>BOND
   1    1    2 ar
   2    1    5 ar
   3    1   27 1
   4    2   18 ar
   5    2   28 1
   6    3    4 ar
   7    3   18 ar
   8    3   29 1
   9    4    5 ar
  10    4   30 1
  11    5    6 1
  12    6    7 am
  13    6   11 1
  14    7    8 am
  15    7   14 2
  16    8    9 am
  17    8   13 1
  18    9   10 1
  19    9   12 2
  20   10   11 2
  21   10   16 1
  22   13   15 1
  23   13   31 1
  24   13   32 1
  25   15   19 2
  26   15   22 1
  27   16   17 1
  28   17   33 1
  29   17   34 1
  30   17   35 1
  31   18   36 1
  32   19   20 1
  33   19   37 1
  34   20   21 1
  35   21   22 2
  36   21   23 1
  37   23   24 am
  38   23   38 1
  39   24   25 2
  40   24   26 1
  41   26   39 1
  42   26   40 1
  43   26   41 1

#	End of record

