#	Name: ASD01814351
#	Creating user name:	WinNT
#	Creation time:	15. 06. 2019 19:32

#	Modifying user name:	WinNT
#	Modification time:	15. 06. 2019 19:32

#	Program:	/corina/corina34_cracker 3.40 0067  02.08.2006

@<TRIPOS>MOLECULE
ASD01814351
  55   60    0    0    0
SMALL
NO_CHARGES


@<TRIPOS>ATOM
   1 N1            -0.9370     1.9351    -1.5515 N.2     
   2 C2            -1.2052     0.7946    -2.1425 C.2     
   3 C3            -0.3431     0.2884    -3.1272 C.2     
   4 C4             0.7693     0.9878    -3.4627 C.2     
   5 N5             1.0246     2.1721    -2.8319 N.pl3   
   6 C6             0.1588     2.6345    -1.8747 C.2     
   7 N7             2.0616     3.1031    -2.9507 N.2     
   8 C8             1.8457     4.0922    -2.1072 C.2     
   9 C9             0.6714     3.8426    -1.4170 C.2     
  10 C10            2.4210     5.4013    -1.6254 C.3     
  11 N11            1.5217     5.9325    -0.5964 N.am    
  12 C12            0.4224     4.9728    -0.4517 C.3     
  13 C13            1.6761     7.0840     0.0867 C.2     
  14 O14            0.8063     7.4602     0.8487 O.2     
  15 C15            2.8994     7.8875    -0.0899 C.ar    
  16 C16            2.8140     9.2807    -0.2261 C.ar    
  17 C17            4.1504     7.2653    -0.1166 C.ar    
  18 C18            5.2901     8.0205    -0.2814 C.ar    
  19 C19            5.2021     9.3987    -0.4212 C.ar    
  20 C20            3.9694    10.0270    -0.3911 C.ar    
  21 O21            1.6048     9.8950    -0.1968 O.3     
  22 C22            1.6030    11.3240    -0.1967 C.3     
  23 Cl23          -0.6972    -1.2207    -3.9090 Cl      
  24 F24            6.3260    10.1310    -0.5819 F       
  25 C25            0.3789    11.4410    -2.3692 C.3     
  26 C26            1.6733    11.8336    -1.6391 C.3     
  27 C27            0.3207    11.8317     0.4689 C.3     
  28 C28           -0.8820    11.4392    -0.4041 C.3     
  29 N29           -0.7395    12.1564    -1.6990 N.3     
  30 C30            0.1048     9.9480    -2.0760 C.3     
  31 C31           -0.7284     9.9467    -0.7774 C.3     
  32 C32           -1.9733    12.0636    -2.4908 C.3     
  33 H33           -2.0928     0.2432    -1.8697 H       
  34 H34            1.4443     0.6133    -4.2180 H       
  35 H35            3.4111     5.2356    -1.2007 H       
  36 H36            2.4874     6.1037    -2.4562 H       
  37 H37           -0.5251     5.4576    -0.6868 H       
  38 H38            0.3992     4.5893     0.5683 H       
  39 H39            4.2233     6.1933    -0.0079 H       
  40 H40            6.2564     7.5386    -0.3015 H       
  41 H41            3.9081    11.1001    -0.4967 H       
  42 H42            2.4679    11.6877     0.3581 H       
  43 H43            0.4272    11.6586    -3.4362 H       
  44 H44            1.7773    12.9186    -1.6383 H       
  45 H45            2.5281    11.3835    -2.1440 H       
  46 H46            0.2182    11.3803     1.4558 H       
  47 H47            0.3638    12.9166     0.5645 H       
  48 H48           -1.8320    11.6553     0.0847 H       
  49 H49           -0.4627     9.4992    -2.8912 H       
  50 H50            1.0423     9.4126    -1.9257 H       
  51 H51           -0.2005     9.4108     0.0114 H       
  52 H52           -1.7056     9.4974    -0.9541 H       
  53 H53           -2.2503    11.0162    -2.6106 H       
  54 H54           -2.7749    12.5951    -1.9780 H       
  55 H55           -1.8102    12.5107    -3.4714 H       
@<TRIPOS>BOND
   1    1    2 2
   2    1    6 1
   3    2    3 1
   4    2   33 1
   5    3    4 2
   6    3   23 1
   7    4    5 1
   8    4   34 1
   9    5    7 1
  10    5    6 1
  11    6    9 2
  12    7    8 2
  13    8   10 1
  14    8    9 1
  15    9   12 1
  16   10   11 1
  17   10   35 1
  18   10   36 1
  19   11   12 1
  20   11   13 am
  21   12   37 1
  22   12   38 1
  23   13   14 2
  24   13   15 1
  25   15   17 ar
  26   15   16 ar
  27   16   20 ar
  28   16   21 1
  29   17   18 ar
  30   17   39 1
  31   18   19 ar
  32   18   40 1
  33   19   20 ar
  34   19   24 1
  35   20   41 1
  36   21   22 1
  37   22   27 1
  38   22   26 1
  39   22   42 1
  40   25   26 1
  41   25   29 1
  42   25   30 1
  43   25   43 1
  44   26   44 1
  45   26   45 1
  46   27   28 1
  47   27   46 1
  48   27   47 1
  49   28   29 1
  50   28   31 1
  51   28   48 1
  52   29   32 1
  53   30   31 1
  54   30   49 1
  55   30   50 1
  56   31   51 1
  57   31   52 1
  58   32   53 1
  59   32   54 1
  60   32   55 1

#	End of record

