#	Name: ASD00843327
#	Creating user name:	WinNT
#	Creation time:	15. 06. 2019 18:46

#	Modifying user name:	WinNT
#	Modification time:	15. 06. 2019 18:46

#	Program:	/corina/corina34_cracker 3.40 0067  02.08.2006

@<TRIPOS>MOLECULE
ASD00843327
  98  103    0    0    0
SMALL
NO_CHARGES


@<TRIPOS>ATOM
   1 N1             0.9739     1.1212    -0.0448 N.ar    
   2 C2             1.1550    -0.1400    -0.3993 C.ar    
   3 C3             1.0471    -1.1608     0.5367 C.ar    
   4 C4             0.7467    -0.8417     1.8493 C.ar    
   5 C5             0.5640     0.4940     2.1808 C.ar    
   6 C6             0.6865     1.4564     1.1988 C.ar    
   7 C7             1.2539    -2.5965     0.1281 C.3     
   8 C8             0.9414    -3.5267     1.2809 C.2     
   9 C9             0.3874    -2.9372    -1.0860 C.3     
  10 C10           -1.0520    -2.6088    -0.7839 C.2     
  11 N11           -2.0170    -2.9343    -1.6667 N.am    
  12 O12           -1.3420    -2.0516     0.2535 O.2     
  13 C13           -3.4118    -2.5227    -1.4463 C.3     
  14 C14           -3.9227    -1.8344    -2.7165 C.3     
  15 N15           -3.7113    -2.7207    -3.8687 N.3     
  16 C16           -2.2816    -2.9755    -4.0898 C.3     
  17 C17           -1.7023    -3.7053    -2.8790 C.3     
  18 C18           -4.3414    -2.1725    -5.0772 C.3     
  19 C19           -3.9963    -3.0554    -6.2797 C.3     
  20 C20           -4.7047    -2.5143    -7.5236 C.3     
  21 N21           -6.1557    -2.5084    -7.2985 N.3     
  22 C22           -6.5157    -1.6299    -6.1781 C.3     
  23 C23           -5.8613    -2.1446    -4.8940 C.3     
  24 C24           -6.8765    -2.1258    -8.5200 C.3     
  25 O25           -0.1280    -3.6457     1.8405 O.2     
  26 N26            2.0703    -4.1961     1.5673 N.am    
  27 C27            2.7131    -2.8582    -0.1684 C.ar    
  28 C28            3.1276    -3.8303     0.7390 C.ar    
  29 C29            3.5828    -2.3370    -1.0925 C.ar    
  30 C30            4.9084    -2.7838    -1.1302 C.ar    
  31 C31            5.3322    -3.7607    -0.2212 C.ar    
  32 C32            4.4483    -4.2776     0.7017 C.ar    
  33 F33            6.6099    -4.1988    -0.2495 F       
  34 C34            1.7913    -6.8897     2.0584 C.ar    
  35 C35            0.5109    -7.1258     1.5788 C.ar    
  36 C36            2.7552    -7.8764     1.9733 C.ar    
  37 C37            2.4468    -9.0997     1.4103 C.ar    
  38 C38            1.1675    -9.3408     0.9291 C.ar    
  39 C39            0.1988    -8.3529     1.0137 C.ar    
  40 O40            0.8647   -10.5445     0.3758 O.3     
  41 O41           -0.4367    -6.1553     1.6632 O.3     
  42 C42           -1.7330    -6.4678     1.1494 C.3     
  43 C43            1.9117   -11.5156     0.3219 C.3     
  44 C44           -8.3744    -2.3695    -8.3258 C.3     
  45 C45           -9.1251    -1.9710    -9.5981 C.3     
  46 S46            2.1906    -5.3280     2.7700 S.o2    
  47 O47            3.5646    -5.3894     3.1272 O.2     
  48 O48            1.1578    -5.0355     3.7012 O.2     
  49 O49            1.4487    -0.4397    -1.6895 O.3     
  50 C50            1.5050     0.6501    -2.6121 C.3     
  51 C51            1.9407     0.1341    -3.9850 C.3     
  52 F52            3.1655    -0.5313    -3.8659 F       
  53 F53            0.9755    -0.7502    -4.4786 F       
  54 C54            5.8241    -2.2465    -2.0912 C.1     
  55 N55            6.5505    -1.8202    -2.8536 N.1     
  56 H56            0.6562    -1.6142     2.5986 H       
  57 H57            0.3282     0.7770     3.1960 H       
  58 H58            0.5457     2.4969     1.4515 H       
  59 H59            0.7205    -2.3547    -1.9450 H       
  60 H60            0.4782    -4.0000    -1.3105 H       
  61 H61           -4.0231    -3.3997    -1.2339 H       
  62 H62           -3.4603    -1.8274    -0.6083 H       
  63 H63           -4.9865    -1.6212    -2.6119 H       
  64 H64           -3.3780    -0.9027    -2.8695 H       
  65 H65           -2.1552    -3.5899    -4.9812 H       
  66 H66           -1.7597    -2.0279    -4.2237 H       
  67 H67           -0.6214    -3.7945    -2.9878 H       
  68 H68           -2.1484    -4.6968    -2.8012 H       
  69 H69           -3.9759    -1.1605    -5.2515 H       
  70 H70           -2.9184    -3.0451    -6.4413 H       
  71 H71           -4.3263    -4.0764    -6.0881 H       
  72 H72           -4.3638    -1.4983    -7.7225 H       
  73 H73           -4.4724    -3.1491    -8.3788 H       
  74 H74           -6.1663    -0.6180    -6.3834 H       
  75 H75           -7.5988    -1.6223    -6.0560 H       
  76 H76           -6.2208    -3.1512    -4.6807 H       
  77 H77           -6.1160    -1.4835    -4.0656 H       
  78 H78           -6.7041    -1.0698    -8.7279 H       
  79 H79           -6.5165    -2.7243    -9.3568 H       
  80 H80            3.2452    -1.5840    -1.7892 H       
  81 H81            4.7805    -5.0311     1.4005 H       
  82 H82            3.7512    -7.6906     2.3472 H       
  83 H83            3.2020    -9.8690     1.3442 H       
  84 H84           -0.7973    -8.5388     0.6402 H       
  85 H85           -1.6551    -6.7097     0.0894 H       
  86 H86           -2.1409    -7.3231     1.6882 H       
  87 H87           -2.3917    -5.6091     1.2787 H       
  88 H88            2.7412   -11.1232    -0.2664 H       
  89 H89            2.2552   -11.7359     1.3326 H       
  90 H90            1.5372   -12.4283    -0.1416 H       
  91 H91           -8.5468    -3.4255    -8.1179 H       
  92 H92           -8.7344    -1.7709    -7.4890 H       
  93 H93           -8.9527    -0.9150    -9.8060 H       
  94 H94           -8.7651    -2.5696   -10.4349 H       
  95 H95          -10.1922    -2.1446    -9.4598 H       
  96 H96            0.5198     1.1094    -2.6924 H       
  97 H97            2.2228     1.3897    -2.2573 H       
  98 H98            2.0487     0.9740    -4.6713 H       
@<TRIPOS>BOND
   1    1    2 ar
   2    1    6 ar
   3    2    3 ar
   4    2   49 1
   5    3    4 ar
   6    3    7 1
   7    4    5 ar
   8    4   56 1
   9    5    6 ar
  10    5   57 1
  11    6   58 1
  12    7    8 1
  13    7    9 1
  14    7   27 1
  15    8   25 2
  16    8   26 am
  17    9   10 1
  18    9   59 1
  19    9   60 1
  20   10   11 am
  21   10   12 2
  22   11   13 1
  23   11   17 1
  24   13   14 1
  25   13   61 1
  26   13   62 1
  27   14   15 1
  28   14   63 1
  29   14   64 1
  30   15   16 1
  31   15   18 1
  32   16   17 1
  33   16   65 1
  34   16   66 1
  35   17   67 1
  36   17   68 1
  37   18   19 1
  38   18   23 1
  39   18   69 1
  40   19   20 1
  41   19   70 1
  42   19   71 1
  43   20   21 1
  44   20   72 1
  45   20   73 1
  46   21   22 1
  47   21   24 1
  48   22   23 1
  49   22   74 1
  50   22   75 1
  51   23   76 1
  52   23   77 1
  53   24   44 1
  54   24   78 1
  55   24   79 1
  56   26   46 am
  57   26   28 1
  58   27   28 ar
  59   27   29 ar
  60   28   32 ar
  61   29   30 ar
  62   29   80 1
  63   30   31 ar
  64   30   54 1
  65   31   32 ar
  66   31   33 1
  67   32   81 1
  68   34   35 ar
  69   34   36 ar
  70   34   46 1
  71   35   41 1
  72   35   39 ar
  73   36   37 ar
  74   36   82 1
  75   37   38 ar
  76   37   83 1
  77   38   39 ar
  78   38   40 1
  79   39   84 1
  80   40   43 1
  81   41   42 1
  82   42   85 1
  83   42   86 1
  84   42   87 1
  85   43   88 1
  86   43   89 1
  87   43   90 1
  88   44   45 1
  89   44   91 1
  90   44   92 1
  91   45   93 1
  92   45   94 1
  93   45   95 1
  94   46   47 2
  95   46   48 2
  96   49   50 1
  97   50   51 1
  98   50   96 1
  99   50   97 1
 100   51   52 1
 101   51   53 1
 102   51   98 1
 103   54   55 3

#	End of record

