#	Name: ASD02198396
#	Creating user name:	WinNT
#	Creation time:	15. 06. 2019 20:19

#	Modifying user name:	WinNT
#	Modification time:	15. 06. 2019 20:19

#	Program:	/corina/corina34_cracker 3.40 0067  02.08.2006

@<TRIPOS>MOLECULE
ASD02198396
  45   48    0    0    0
SMALL
NO_CHARGES


@<TRIPOS>ATOM
   1 C1            -0.2650     0.8848    -0.3020 C.2     
   2 C2            -0.1104    -0.4538    -0.3040 C.2     
   3 S3             1.3123     1.6568    -0.2037 S.3     
   4 C4             2.1115     0.0907    -0.1699 C.2     
   5 C5             1.1994    -0.8832    -0.2311 C.2     
   6 S6             3.8532    -0.1566    -0.0713 S.o2    
   7 N7             4.4091    -0.3518    -1.6189 N.am    
   8 C8             4.2722     0.6820    -2.5444 C.ar    
   9 C9             4.8836     1.9332    -2.3092 C.ar    
  10 C10            4.7284     2.9652    -3.2667 C.ar    
  11 C11            3.9737     2.7310    -4.4273 C.ar    
  12 C12            3.3950     1.5143    -4.6274 C.ar    
  13 C13            3.5441     0.4890    -3.6984 C.ar    
  14 N14            5.6000     2.1530    -1.2037 N.ar    
  15 C15            6.1695     3.3123    -0.9796 C.ar    
  16 C16            6.0567     4.3701    -1.8794 C.ar    
  17 C17            5.3388     4.2119    -3.0303 C.ar    
  18 O18            4.4056     1.0639     0.4025 O.2     
  19 O19            4.0451    -1.4027     0.5841 O.2     
  20 C20           -1.5603     1.5950    -0.3773 C.2     
  21 N21           -2.7497     1.0331    -0.4566 N.2     
  22 C22           -1.7419     2.9934    -0.3709 C.2     
  23 C23           -3.0672     3.2388    -0.4542 C.2     
  24 N24           -3.7094     2.0519    -0.5083 N.pl3   
  25 C25           -5.1590     1.8628    -0.6039 C.3     
  26 C26           -3.7162     4.5987    -0.4788 C.3     
  27 F27           -2.7267     5.5870    -0.5171 F       
  28 F28           -4.5280     4.7075    -1.6130 F       
  29 F29           -4.4962     4.7641     0.6707 F       
  30 C30            2.8906    -0.8451    -3.9514 C.3     
  31 H31           -0.9453    -1.1367    -0.3579 H       
  32 H32            1.4669    -1.9295    -0.2237 H       
  33 H33            4.8299    -1.1853    -1.8816 H       
  34 H34            3.8520     3.5147    -5.1604 H       
  35 H35            2.8157     1.3414    -5.5223 H       
  36 H36            6.7409     3.4512    -0.0737 H       
  37 H37            6.5367     5.3140    -1.6671 H       
  38 H38            5.2411     5.0209    -3.7391 H       
  39 H39           -0.9602     3.7360    -0.3095 H       
  40 H40           -5.4523     1.8268    -1.6531 H       
  41 H41           -5.4364     0.9280    -0.1168 H       
  42 H42           -5.6669     2.6930    -0.1130 H       
  43 H43            3.5778    -1.4876    -4.5020 H       
  44 H44            2.6395    -1.3131    -2.9996 H       
  45 H45            1.9820    -0.6997    -4.5358 H       
@<TRIPOS>BOND
   1    1    2 2
   2    1    3 1
   3    1   20 1
   4    2    5 1
   5    2   31 1
   6    3    4 1
   7    4    5 2
   8    4    6 1
   9    5   32 1
  10    6    7 am
  11    6   18 2
  12    6   19 2
  13    7    8 1
  14    7   33 1
  15    8    9 ar
  16    8   13 ar
  17    9   10 ar
  18    9   14 ar
  19   10   11 ar
  20   10   17 ar
  21   11   12 ar
  22   11   34 1
  23   12   13 ar
  24   12   35 1
  25   13   30 1
  26   14   15 ar
  27   15   16 ar
  28   15   36 1
  29   16   17 ar
  30   16   37 1
  31   17   38 1
  32   20   21 2
  33   20   22 1
  34   21   24 1
  35   22   23 2
  36   22   39 1
  37   23   24 1
  38   23   26 1
  39   24   25 1
  40   25   40 1
  41   25   41 1
  42   25   42 1
  43   26   27 1
  44   26   28 1
  45   26   29 1
  46   30   43 1
  47   30   44 1
  48   30   45 1

#	End of record

