#	Name: ASD03331260
#	Creating user name:	WinNT
#	Creation time:	15. 06. 2019 20:38

#	Modifying user name:	WinNT
#	Modification time:	15. 06. 2019 20:38

#	Program:	/corina/corina34_cracker 3.40 0067  02.08.2006

@<TRIPOS>MOLECULE
ASD03331260
  57   61    0    0    0
SMALL
NO_CHARGES


@<TRIPOS>ATOM
   1 N1            -0.1944     1.4010     0.4780 N.am    
   2 C2            -0.0919     0.0707     1.0971 C.3     
   3 C3             0.5133    -0.8968     0.0745 C.3     
   4 N4             1.7795    -0.3456    -0.4266 N.3     
   5 C5             1.5643     0.9201    -1.1404 C.3     
   6 C6             1.0021     1.9621    -0.1675 C.3     
   7 C7            -1.3554     2.0851     0.4969 C.2     
   8 O8            -2.3602     1.5653     0.9424 O.2     
   9 N9            -1.4027     3.3456     0.0220 N.am    
  10 C10           -2.6326     4.0022    -0.0989 C.ar    
  11 C11           -2.7105     5.3750     0.0951 C.ar    
  12 C12           -3.9257     6.0201    -0.0254 C.ar    
  13 C13           -5.0641     5.3005    -0.3387 C.ar    
  14 C14           -4.9899     3.9333    -0.5325 C.ar    
  15 C15           -3.7767     3.2831    -0.4186 C.ar    
  16 C16            2.4766    -1.3184    -1.2785 C.3     
  17 C17            3.6347    -0.6438    -1.9674 C.ar    
  18 C18            4.8798    -0.6251    -1.3669 C.ar    
  19 C19            5.9446    -0.0064    -1.9962 C.ar    
  20 C20            5.7666     0.5941    -3.2271 C.ar    
  21 C21            4.5178     0.5764    -3.8324 C.ar    
  22 C22            3.4525    -0.0494    -3.2013 C.ar    
  23 O23            4.3400     1.1669    -5.0432 O.3     
  24 C24            5.4351     1.6618    -5.6791 C.ar    
  25 C25            6.3144     0.7999    -6.3181 C.ar    
  26 C26            5.6697     3.0286    -5.6935 C.ar    
  27 C27            6.7824     3.5339    -6.3397 C.ar    
  28 C28            7.6659     2.6769    -6.9746 C.ar    
  29 C29            7.4295     1.3040    -6.9661 C.ar    
  30 O30            8.8169     2.9167    -7.6699 O.3     
  31 C31            9.4998     1.6506    -7.7309 C.3     
  32 O32            8.4339     0.6841    -7.6519 O.3     
  33 H33            0.5511     0.1243     1.9756 H       
  34 H34           -1.0840    -0.2758     1.3865 H       
  35 H35            0.6988    -1.8597     0.5503 H       
  36 H36           -0.1800    -1.0286    -0.7562 H       
  37 H37            2.5119     1.2748    -1.5457 H       
  38 H38            0.8563     0.7630    -1.9541 H       
  39 H39            0.7333     2.8660    -0.7142 H       
  40 H40            1.7502     2.1975     0.5894 H       
  41 H41           -0.5841     3.7976    -0.2361 H       
  42 H42           -1.8217     5.9376     0.3402 H       
  43 H43           -3.9870     7.0878     0.1257 H       
  44 H44           -6.0133     5.8072    -0.4320 H       
  45 H45           -5.8808     3.3740    -0.7771 H       
  46 H46           -3.7186     2.2160    -0.5745 H       
  47 H47            2.8472    -2.1392    -0.6644 H       
  48 H48            1.7855    -1.7075    -2.0263 H       
  49 H49            5.0211    -1.0941    -0.4043 H       
  50 H50            6.9160     0.0074    -1.5246 H       
  51 H51            6.5983     1.0775    -3.7180 H       
  52 H52            2.4798    -0.0647    -3.6702 H       
  53 H53            6.1294    -0.2641    -6.3100 H       
  54 H54            4.9820     3.6990    -5.1995 H       
  55 H55            6.9628     4.5987    -6.3499 H       
  56 H56           10.0364     1.5500    -8.6744 H       
  57 H57           10.1820     1.5423    -6.8877 H       
@<TRIPOS>BOND
   1    1    2 1
   2    1    6 1
   3    1    7 am
   4    2    3 1
   5    2   33 1
   6    2   34 1
   7    3    4 1
   8    3   35 1
   9    3   36 1
  10    4    5 1
  11    4   16 1
  12    5    6 1
  13    5   37 1
  14    5   38 1
  15    6   39 1
  16    6   40 1
  17    7    8 2
  18    7    9 am
  19    9   10 1
  20    9   41 1
  21   10   11 ar
  22   10   15 ar
  23   11   12 ar
  24   11   42 1
  25   12   13 ar
  26   12   43 1
  27   13   14 ar
  28   13   44 1
  29   14   15 ar
  30   14   45 1
  31   15   46 1
  32   16   17 1
  33   16   47 1
  34   16   48 1
  35   17   18 ar
  36   17   22 ar
  37   18   19 ar
  38   18   49 1
  39   19   20 ar
  40   19   50 1
  41   20   21 ar
  42   20   51 1
  43   21   22 ar
  44   21   23 1
  45   22   52 1
  46   23   24 1
  47   24   25 ar
  48   24   26 ar
  49   25   29 ar
  50   25   53 1
  51   26   27 ar
  52   26   54 1
  53   27   28 ar
  54   27   55 1
  55   28   29 ar
  56   28   30 1
  57   29   32 1
  58   30   31 1
  59   31   32 1
  60   31   56 1
  61   31   57 1

#	End of record

