#	Name: ASD00845009
#	Creating user name:	WinNT
#	Creation time:	15. 06. 2019 18:51

#	Modifying user name:	WinNT
#	Modification time:	15. 06. 2019 18:51

#	Program:	/corina/corina34_cracker 3.40 0067  02.08.2006

@<TRIPOS>MOLECULE
ASD00845009
  95  100    0    0    0
SMALL
NO_CHARGES


@<TRIPOS>ATOM
   1 F1             5.6889    -2.1912    -1.9631 F       
   2 C2             0.7410     1.2447    -0.3746 C.ar    
   3 C3             0.9822    -0.0937    -0.6479 C.ar    
   4 C4             0.8550    -1.0390     0.3598 C.ar    
   5 C5             0.4887    -0.6454     1.6321 C.ar    
   6 C6             0.2483     0.6894     1.9018 C.ar    
   7 C7             0.3748     1.6333     0.8997 C.ar    
   8 C8             1.1159    -2.4939     0.0663 C.3     
   9 C9             0.7849    -3.3460     1.2730 C.2     
  10 C10            0.3048    -2.9479    -1.1491 C.3     
  11 C11           -1.1546    -2.6515    -0.9183 C.2     
  12 N12           -2.0752    -3.0611    -1.8134 N.am    
  13 O13           -1.5007    -2.0444     0.0730 O.2     
  14 C14           -3.4866    -2.6820    -1.6624 C.3     
  15 C15           -4.3441    -3.9511    -1.6936 C.3     
  16 C16           -4.0377    -4.7377    -2.9701 C.3     
  17 C17           -2.5639    -5.1502    -2.9757 C.3     
  18 C18           -1.6854    -3.8901    -2.9621 C.3     
  19 C19           -4.9173    -5.9885    -3.0216 C.3     
  20 C20           -6.3923    -5.5773    -3.0177 C.3     
  21 C21           -7.2660    -6.8286    -3.1307 C.3     
  22 N22           -6.9417    -7.5431    -4.3720 N.3     
  23 C23           -5.5427    -7.9892    -4.3779 C.3     
  24 C24           -4.6175    -6.7725    -4.3022 C.3     
  25 C25           -7.8557    -8.6736    -4.5829 C.3     
  26 O26           -0.3012    -3.4551     1.8018 O.2     
  27 N27            1.9202    -3.9590     1.6480 N.am    
  28 C28            2.5913    -2.7324    -0.1591 C.ar    
  29 C29            2.9990    -3.6205     0.8284 C.ar    
  30 C30            3.4846    -2.2537    -1.0910 C.ar    
  31 C31            4.8092    -2.6581    -1.0504 C.ar    
  32 C32            5.2284    -3.5442    -0.0695 C.ar    
  33 C33            4.3316    -4.0243     0.8655 C.ar    
  34 F34            6.5195    -3.9398    -0.0281 F       
  35 C35            1.6984    -6.6169     2.3267 C.ar    
  36 C36            0.4443    -6.9273     1.8219 C.ar    
  37 C37            2.6908    -7.5781     2.3473 C.ar    
  38 C38            2.4347    -8.8481     1.8650 C.ar    
  39 C39            1.1852    -9.1600     1.3612 C.ar    
  40 C40            0.1897    -8.2029     1.3388 C.ar    
  41 H41            0.9876   -10.1529     0.9850 H       
  42 O42           -0.5336    -5.9838     1.8010 O.3     
  43 C43           -1.8003    -6.3740     1.2670 C.3     
  44 C44           -7.5681    -9.3154    -5.9417 C.3     
  45 C45           -7.6496    -9.7094    -3.4758 C.3     
  46 O46            1.3421    -0.4785    -1.9006 O.3     
  47 C47            1.3748     0.5359    -2.9066 C.3     
  48 C48            1.8835    -0.0637    -4.2191 C.3     
  49 F49            3.1343    -0.6538    -4.0083 F       
  50 F50            0.9808    -1.0326    -4.6700 F       
  51 S51            2.0279    -4.9962     2.9345 S.o2    
  52 O52            3.3891    -4.9896     3.3423 O.2     
  53 O53            0.9541    -4.6682     3.8054 O.2     
  54 H54            0.8437     1.9829    -1.1562 H       
  55 H55            0.3895    -1.3808     2.4168 H       
  56 H56           -0.0387     0.9951     2.8971 H       
  57 H57            0.1865     2.6751     1.1129 H       
  58 H58            0.6483    -2.4140    -2.0351 H       
  59 H59            0.4392    -4.0196    -1.2958 H       
  60 H60           -3.6275    -2.1691    -0.7109 H       
  61 H61           -3.7779    -2.0240    -2.4811 H       
  62 H62           -4.1152    -4.5662    -0.8234 H       
  63 H63           -5.3992    -3.6777    -1.6791 H       
  64 H64           -4.2433    -4.1133    -3.8395 H       
  65 H65           -2.3518    -5.7541    -2.0934 H       
  66 H66           -2.3520    -5.7304    -3.8738 H       
  67 H67           -1.8310    -3.3331    -3.8876 H       
  68 H68           -0.6379    -4.1759    -2.8662 H       
  69 H69           -4.7115    -6.6146    -2.1534 H       
  70 H70           -6.6222    -5.0556    -2.0887 H       
  71 H71           -6.5886    -4.9187    -3.8638 H       
  72 H72           -7.0791    -7.4803    -2.2772 H       
  73 H73           -8.3165    -6.5382    -3.1427 H       
  74 H74           -5.3639    -8.6355    -3.5186 H       
  75 H75           -5.3415    -8.5418    -5.2957 H       
  76 H76           -4.7860    -6.1327    -5.1684 H       
  77 H77           -3.5795    -7.1048    -4.2908 H       
  78 H78           -8.8856    -8.3174    -4.5600 H       
  79 H79            3.1531    -1.5640    -1.8532 H       
  80 H80            4.6647    -4.7139     1.6270 H       
  81 H81            3.6674    -7.3369     2.7403 H       
  82 H82            3.2119    -9.5978     1.8813 H       
  83 H83           -0.7862    -8.4472     0.9459 H       
  84 H84           -2.2029    -7.2001     1.8533 H       
  85 H85           -2.4881    -5.5295     1.3091 H       
  86 H86           -1.6762    -6.6902     0.2313 H       
  87 H87           -8.2463   -10.1542    -6.0981 H       
  88 H88           -7.7149    -8.5775    -6.7304 H       
  89 H89           -6.5382    -9.6716    -5.9646 H       
  90 H90           -7.8545    -9.2522    -2.5078 H       
  91 H91           -8.3278   -10.5482    -3.6322 H       
  92 H92           -6.6197   -10.0656    -3.4987 H       
  93 H93            0.3708     0.9339    -3.0540 H       
  94 H94            2.0412     1.3388    -2.5915 H       
  95 H95            1.9748     0.7240    -4.9671 H       
@<TRIPOS>BOND
   1    1   31 1
   2    2    3 ar
   3    2    7 ar
   4    2   54 1
   5    3    4 ar
   6    3   46 1
   7    4    5 ar
   8    4    8 1
   9    5    6 ar
  10    5   55 1
  11    6    7 ar
  12    6   56 1
  13    7   57 1
  14    8    9 1
  15    8   10 1
  16    8   28 1
  17    9   26 2
  18    9   27 am
  19   10   11 1
  20   10   58 1
  21   10   59 1
  22   11   12 am
  23   11   13 2
  24   12   14 1
  25   12   18 1
  26   14   15 1
  27   14   60 1
  28   14   61 1
  29   15   16 1
  30   15   62 1
  31   15   63 1
  32   16   17 1
  33   16   19 1
  34   16   64 1
  35   17   18 1
  36   17   65 1
  37   17   66 1
  38   18   67 1
  39   18   68 1
  40   19   20 1
  41   19   24 1
  42   19   69 1
  43   20   21 1
  44   20   70 1
  45   20   71 1
  46   21   22 1
  47   21   72 1
  48   21   73 1
  49   22   23 1
  50   22   25 1
  51   23   24 1
  52   23   74 1
  53   23   75 1
  54   24   76 1
  55   24   77 1
  56   25   44 1
  57   25   45 1
  58   25   78 1
  59   27   51 am
  60   27   29 1
  61   28   29 ar
  62   28   30 ar
  63   29   33 ar
  64   30   31 ar
  65   30   79 1
  66   31   32 ar
  67   32   33 ar
  68   32   34 1
  69   33   80 1
  70   35   36 ar
  71   35   37 ar
  72   35   51 1
  73   36   42 1
  74   36   40 ar
  75   37   38 ar
  76   37   81 1
  77   38   39 ar
  78   38   82 1
  79   39   40 ar
  80   39   41 1
  81   40   83 1
  82   42   43 1
  83   43   84 1
  84   43   85 1
  85   43   86 1
  86   44   87 1
  87   44   88 1
  88   44   89 1
  89   45   90 1
  90   45   91 1
  91   45   92 1
  92   46   47 1
  93   47   48 1
  94   47   93 1
  95   47   94 1
  96   48   49 1
  97   48   50 1
  98   48   95 1
  99   51   52 2
 100   51   53 2

#	End of record

