#	Name: ASD00170772
#	Creating user name:	WinNT
#	Creation time:	15. 06. 2019 18:32

#	Modifying user name:	WinNT
#	Modification time:	15. 06. 2019 18:32

#	Program:	/corina/corina34_cracker 3.40 0067  02.08.2006

@<TRIPOS>MOLECULE
ASD00170772
  57   61    0    0    0
SMALL
NO_CHARGES


@<TRIPOS>ATOM
   1 Cl1            3.0474     5.5052    -5.0788 Cl      
   2 C2             2.1408     5.6436    -3.6049 C.ar    
   3 C3             2.6225     5.0656    -2.4418 C.ar    
   4 C4             1.9071     5.1725    -1.2679 C.ar    
   5 C5             0.6948     5.8651    -1.2531 C.ar    
   6 C6             0.2143     6.4456    -2.4287 C.ar    
   7 C7             0.9413     6.3364    -3.5953 C.ar    
   8 C8            -0.0773     5.9830     0.0020 C.2     
   9 O9             0.3022     5.4090     1.0063 O.2     
  10 C10           -1.2998     6.7910     0.0374 C.2     
  11 C11           -2.5604     6.2541    -0.0880 C.2     
  12 S12           -3.7418     7.4814    -0.0000 S.3     
  13 C13           -2.5208     8.7266     0.2076 C.2     
  14 C14           -1.2944     8.1778     0.2076 C.2     
  15 C15           -0.0309     8.9836     0.3665 C.3     
  16 C16            0.3221     9.0911     1.8513 C.3     
  17 C17            0.5351     7.6898     2.4276 C.3     
  18 C18            1.6049     9.9092     2.0127 C.3     
  19 C19           -0.8205     9.7816     2.5986 C.3     
  20 C20           -2.8006    10.1627     0.3640 C.2     
  21 C21           -4.0343    10.7411     0.3723 C.2     
  22 C22           -3.8322    12.1247     0.5460 C.2     
  23 C23           -2.5024    12.3222     0.6343 C.2     
  24 O24           -1.8820    11.1343     0.5298 O.3     
  25 N25           -2.8321     4.9054    -0.2622 N.am    
  26 C26           -2.9540     4.0177     0.7412 C.2     
  27 O27           -2.8456     4.2667     1.9249 O.2     
  28 C28           -3.2425     2.6890     0.1621 C.ar    
  29 C29           -3.2771     2.8765    -1.2349 C.ar    
  30 C30           -3.0142     4.3137    -1.4566 C.2     
  31 O31           -2.9638     4.8668    -2.5366 O.2     
  32 C32           -3.5292     1.7987    -2.0686 C.ar    
  33 C33           -3.7457     0.5433    -1.5224 C.ar    
  34 C34           -3.7117     0.3595    -0.1527 C.ar    
  35 C35           -3.4607     1.4281     0.6938 C.ar    
  36 H36            3.5602     4.5299    -2.4546 H       
  37 H37            2.2836     4.7212    -0.3618 H       
  38 H38           -0.7227     6.9825    -2.4234 H       
  39 H39            0.5710     6.7852    -4.5051 H       
  40 H40            0.7832     8.4917    -0.1659 H       
  41 H41           -0.1826     9.9819    -0.0440 H       
  42 H42            1.3491     7.1979     1.8952 H       
  43 H43            0.7866     7.7664     3.4854 H       
  44 H44           -0.3788     7.1070     2.3127 H       
  45 H45            1.4532    10.9075     1.6021 H       
  46 H46            1.8564     9.9857     3.0705 H       
  47 H47            2.4190     9.4173     1.4803 H       
  48 H48           -1.7344     9.1987     2.4836 H       
  49 H49           -0.5690     9.8581     3.6564 H       
  50 H50           -0.9722    10.7799     2.1880 H       
  51 H51           -4.9834    10.2367     0.2663 H       
  52 H52           -4.5987    12.8838     0.5980 H       
  53 H53           -2.0156    13.2766     0.7710 H       
  54 H54           -3.5573     1.9364    -3.1395 H       
  55 H55           -3.9426    -0.2972    -2.1714 H       
  56 H56           -3.8823    -0.6235     0.2608 H       
  57 H57           -3.4350     1.2785     1.7630 H       
@<TRIPOS>BOND
   1    1    2 1
   2    2    3 ar
   3    2    7 ar
   4    3    4 ar
   5    3   36 1
   6    4    5 ar
   7    4   37 1
   8    5    6 ar
   9    5    8 1
  10    6    7 ar
  11    6   38 1
  12    7   39 1
  13    8    9 2
  14    8   10 1
  15   10   11 2
  16   10   14 1
  17   11   12 1
  18   11   25 1
  19   12   13 1
  20   13   14 2
  21   13   20 1
  22   14   15 1
  23   15   16 1
  24   15   40 1
  25   15   41 1
  26   16   17 1
  27   16   18 1
  28   16   19 1
  29   17   42 1
  30   17   43 1
  31   17   44 1
  32   18   45 1
  33   18   46 1
  34   18   47 1
  35   19   48 1
  36   19   49 1
  37   19   50 1
  38   20   21 2
  39   20   24 1
  40   21   22 1
  41   21   51 1
  42   22   23 2
  43   22   52 1
  44   23   24 1
  45   23   53 1
  46   25   26 am
  47   25   30 am
  48   26   27 2
  49   26   28 1
  50   28   29 ar
  51   28   35 ar
  52   29   30 1
  53   29   32 ar
  54   30   31 2
  55   32   33 ar
  56   32   54 1
  57   33   34 ar
  58   33   55 1
  59   34   35 ar
  60   34   56 1
  61   35   57 1

#	End of record

