#	Name: ASD01411595
#	Creating user name:	WinNT
#	Creation time:	15. 06. 2019 19:19

#	Modifying user name:	WinNT
#	Modification time:	15. 06. 2019 19:19

#	Program:	/corina/corina34_cracker 3.40 0067  02.08.2006

@<TRIPOS>MOLECULE
ASD01411595
  24   26    0    0    0
SMALL
NO_CHARGES


@<TRIPOS>ATOM
   1 N1            -0.0159     1.3180     0.0093 N.ar    
   2 C2             0.0021    -0.0041     0.0020 C.ar    
   3 C3             1.0890     2.0385     0.0026 C.ar    
   4 C4             2.3265     1.4170    -0.0125 C.ar    
   5 C5             2.3841     0.0081    -0.0207 C.ar    
   6 C6             1.1765    -0.7018    -0.0129 C.ar    
   7 N7             3.6360     1.8530    -0.0227 N.pl3   
   8 C8             4.4306     0.7392    -0.0363 C.2     
   9 N9             3.6831    -0.3396    -0.0349 N.2     
  10 C10            5.9088     0.7495    -0.0499 C.ar    
  11 C11            6.6182    -0.4524    -0.0632 C.ar    
  12 C12            7.9972    -0.4363    -0.0758 C.ar    
  13 C13            8.6795     0.7681    -0.0749 C.ar    
  14 C14            7.9853     1.9635    -0.0618 C.ar    
  15 C15            6.6025     1.9627    -0.0553 C.ar    
  16 F16            5.9243     3.1311    -0.0430 F       
  17 H17           -0.9329    -0.5446     0.0084 H       
  18 H18            1.0284     3.1168     0.0086 H       
  19 H19            1.1740    -1.7818    -0.0184 H       
  20 H20            3.9364     2.7753    -0.0206 H       
  21 H21            6.0883    -1.3935    -0.0632 H       
  22 H22            8.5464    -1.3661    -0.0861 H       
  23 H23            9.7594     0.7739    -0.0841 H       
  24 H24            8.5238     2.8996    -0.0611 H       
@<TRIPOS>BOND
   1    1    2 ar
   2    1    3 ar
   3    2    6 ar
   4    2   17 1
   5    3    4 ar
   6    3   18 1
   7    4    5 ar
   8    4    7 1
   9    5    6 ar
  10    5    9 1
  11    6   19 1
  12    7    8 1
  13    7   20 1
  14    8    9 2
  15    8   10 1
  16   10   11 ar
  17   10   15 ar
  18   11   12 ar
  19   11   21 1
  20   12   13 ar
  21   12   22 1
  22   13   14 ar
  23   13   23 1
  24   14   15 ar
  25   14   24 1
  26   15   16 1

#	End of record

