#	Name: ASD01917446
#	Creating user name:	WinNT
#	Creation time:	15. 06. 2019 20:09

#	Modifying user name:	WinNT
#	Modification time:	15. 06. 2019 20:09

#	Program:	/corina/corina34_cracker 3.40 0067  02.08.2006

@<TRIPOS>MOLECULE
ASD01917446
  49   52    0    0    0
SMALL
NO_CHARGES


@<TRIPOS>ATOM
   1 S1            -0.0211     1.7053     0.0114 S.3     
   2 C2             0.0021    -0.0041     0.0020 C.2     
   3 N3             1.2212    -0.4385    -0.0120 N.2     
   4 C4             2.1785     0.4550    -0.0163 C.2     
   5 C5             1.7406     1.7389    -0.0052 C.2     
   6 C6             2.5827     2.9399    -0.0072 C.2     
   7 O7             3.7948     2.8331    -0.0198 O.2     
   8 N8             2.0140     4.1618     0.0048 N.am    
   9 C9            -1.2235    -0.8810     0.0098 C.3     
  10 C10            2.8551     5.3613     0.0028 C.3     
  11 C11            3.7999     5.4213     1.2158 C.3     
  12 C12            4.7930     6.5681     1.0181 C.3     
  13 C13            4.0472     7.8843     0.7895 C.3     
  14 C14            3.0918     7.7183    -0.4052 C.3     
  15 C15            3.8766     7.0040    -1.5298 C.3     
  16 C16            3.7269     5.4750    -1.2691 C.3     
  17 C17            2.0264     6.6729     0.0183 C.3     
  18 C18            3.3170     9.9932    -1.2485 C.2     
  19 C19            2.7325    11.2777    -1.6896 C.ar    
  20 C20            3.5628    12.3174    -2.1108 C.ar    
  21 C21            3.0098    13.5151    -2.5216 C.ar    
  22 C22            1.6342    13.6837    -2.5154 C.ar    
  23 C23            0.8078    12.6561    -2.0987 C.ar    
  24 C24            1.3480    11.4533    -1.6916 C.ar    
  25 O25            4.5230     9.8411    -1.2524 O.2     
  26 N26            2.5127     8.9910    -0.8422 N.am    
  27 F27            3.8112    14.5234    -2.9295 F       
  28 H28            3.2260     0.1924    -0.0274 H       
  29 H29            1.0478     4.2469     0.0148 H       
  30 H30           -1.5294    -1.0869    -1.0159 H       
  31 H31           -0.9959    -1.8189     0.5163 H       
  32 H32           -2.0316    -0.3714     0.5346 H       
  33 H33            3.2193     5.5938     2.1221 H       
  34 H34            4.3425     4.4799     1.3024 H       
  35 H35            5.4208     6.6585     1.9045 H       
  36 H36            5.4223     6.3553     0.1539 H       
  37 H37            3.4749     8.1388     1.6815 H       
  38 H38            4.7640     8.6772     0.5758 H       
  39 H39            3.4551     7.2602    -2.5018 H       
  40 H40            4.9285     7.2871    -1.4906 H       
  41 H41            4.7047     5.0261    -1.0943 H       
  42 H42            3.2329     4.9834    -2.1071 H       
  43 H43            1.2045     6.6245    -0.6960 H       
  44 H44            1.6584     6.8909     1.0209 H       
  45 H45            4.6348    12.1862    -2.1154 H       
  46 H46            1.2059    14.6216    -2.8369 H       
  47 H47           -0.2634    12.7937    -2.0962 H       
  48 H48            0.7006    10.6506    -1.3709 H       
  49 H49            1.5503     9.1124    -0.8392 H       
@<TRIPOS>BOND
   1    1    2 1
   2    1    5 1
   3    2    3 2
   4    2    9 1
   5    3    4 1
   6    4    5 2
   7    4   28 1
   8    5    6 1
   9    6    7 2
  10    6    8 am
  11    8   10 1
  12    8   29 1
  13    9   30 1
  14    9   31 1
  15    9   32 1
  16   10   11 1
  17   10   16 1
  18   10   17 1
  19   11   12 1
  20   11   33 1
  21   11   34 1
  22   12   13 1
  23   12   35 1
  24   12   36 1
  25   13   14 1
  26   13   37 1
  27   13   38 1
  28   14   15 1
  29   14   17 1
  30   14   26 1
  31   15   16 1
  32   15   39 1
  33   15   40 1
  34   16   41 1
  35   16   42 1
  36   17   43 1
  37   17   44 1
  38   18   19 1
  39   18   25 2
  40   18   26 am
  41   19   20 ar
  42   19   24 ar
  43   20   21 ar
  44   20   45 1
  45   21   22 ar
  46   21   27 1
  47   22   23 ar
  48   22   46 1
  49   23   24 ar
  50   23   47 1
  51   24   48 1
  52   26   49 1

#	End of record

