#	Name: ASD02500180
#	Creating user name:	WinNT
#	Creation time:	15. 06. 2019 20:22

#	Modifying user name:	WinNT
#	Modification time:	15. 06. 2019 20:22

#	Program:	/corina/corina34_cracker 3.40 0067  02.08.2006

@<TRIPOS>MOLECULE
ASD02500180
  65   69    0    0    0
SMALL
NO_CHARGES


@<TRIPOS>ATOM
   1 N1            -3.0127     5.5588    -0.6453 N.ar    
   2 C2            -4.1081     6.1851    -1.0003 C.ar    
   3 C3            -5.2930     6.0564    -0.2785 C.ar    
   4 C4            -5.3325     5.2604     0.8306 C.ar    
   5 C5            -4.1542     4.5890     1.2086 C.ar    
   6 C6            -4.1182     3.7543     2.3368 C.ar    
   7 C7            -2.9587     3.1225     2.6697 C.ar    
   8 C8            -1.8065     3.2937     1.9054 C.ar    
   9 C9            -1.8059     4.0954     0.8056 C.ar    
  10 C10           -2.9835     4.7646     0.4297 C.ar    
  11 S11           -0.3344     4.2946    -0.1428 S.o2    
  12 O12           -0.1014     5.6935    -0.2330 O.2     
  13 O13            0.6142     3.3816     0.3918 O.2     
  14 N14           -0.6677     3.7760    -1.6798 N.am    
  15 C15           -0.9311     2.4317    -1.9181 C.ar    
  16 C16           -0.4975     1.8378    -3.1006 C.ar    
  17 C17           -0.7565     0.5078    -3.3394 C.ar    
  18 C18           -1.4559    -0.2475    -2.3932 C.ar    
  19 C19           -1.8898     0.3515    -1.2072 C.ar    
  20 C20           -1.6226     1.6810    -0.9717 C.ar    
  21 C21           -1.7357    -1.6736    -2.6463 C.2     
  22 O22           -2.1302    -2.0311    -3.7395 O.2     
  23 N23           -1.5540    -2.5804    -1.6659 N.am    
  24 C24           -1.6893    -4.0175    -1.9417 C.3     
  25 C25           -0.3976    -4.7231    -1.5104 C.3     
  26 N26           -0.0601    -4.2923    -0.1464 N.am    
  27 C27            0.0752    -2.8552     0.1294 C.3     
  28 C28           -1.2110    -2.1499    -0.3032 C.3     
  29 C29            0.6644    -4.7735     2.1454 C.ar    
  30 C30            0.6946    -5.6760     3.2062 C.ar    
  31 C31            1.2106    -5.2651     4.4250 C.ar    
  32 C32            1.6787    -3.9654     4.5406 C.ar    
  33 C33            1.6178    -3.1215     3.4433 C.ar    
  34 N34            1.1229    -3.5374     2.2979 N.ar    
  35 C35            0.1215    -5.1991     0.8340 C.2     
  36 O36           -0.1599    -6.3656     0.6426 O.2     
  37 C37            2.1254    -1.7077     3.5640 C.3     
  38 C38            0.2558     2.6529    -4.1200 C.3     
  39 H39           -4.0917     6.8180    -1.8752 H       
  40 H40           -6.1793     6.5859    -0.5956 H       
  41 H41           -6.2422     5.1494     1.4020 H       
  42 H42           -5.0048     3.6143     2.9374 H       
  43 H43           -2.9319     2.4806     3.5378 H       
  44 H44           -0.8991     2.7822     2.1905 H       
  45 H45           -0.6793     4.4101    -2.4138 H       
  46 H46           -0.4203     0.0479    -4.2568 H       
  47 H47           -2.4302    -0.2293    -0.4744 H       
  48 H48           -1.9534     2.1432    -0.0534 H       
  49 H49           -2.5315    -4.4203    -1.3790 H       
  50 H50           -1.8516    -4.1716    -3.0085 H       
  51 H51           -0.5475    -5.8026    -1.5266 H       
  52 H52            0.4109    -4.4533    -2.1898 H       
  53 H53            0.2375    -2.7011     1.1962 H       
  54 H54            0.9174    -2.4524    -0.4333 H       
  55 H55           -1.0576    -1.0709    -0.2881 H       
  56 H56           -2.0184    -2.4167     0.3788 H       
  57 H57            0.3208    -6.6814     3.0806 H       
  58 H58            1.2469    -5.9420     5.2658 H       
  59 H59            2.0866    -3.6139     5.4768 H       
  60 H60            3.1831    -1.6778     3.3019 H       
  61 H61            1.5653    -1.0616     2.8881 H       
  62 H62            1.9952    -1.3611     4.5892 H       
  63 H63            1.3244     2.5957    -3.9132 H       
  64 H64            0.0573     2.2605    -5.1174 H       
  65 H65           -0.0695     3.6918    -4.0669 H       
@<TRIPOS>BOND
   1    1    2 ar
   2    1   10 ar
   3    2    3 ar
   4    2   39 1
   5    3    4 ar
   6    3   40 1
   7    4    5 ar
   8    4   41 1
   9    5    6 ar
  10    5   10 ar
  11    6    7 ar
  12    6   42 1
  13    7    8 ar
  14    7   43 1
  15    8    9 ar
  16    8   44 1
  17    9   10 ar
  18    9   11 1
  19   11   12 2
  20   11   13 2
  21   11   14 am
  22   14   15 1
  23   14   45 1
  24   15   16 ar
  25   15   20 ar
  26   16   17 ar
  27   16   38 1
  28   17   18 ar
  29   17   46 1
  30   18   19 ar
  31   18   21 1
  32   19   20 ar
  33   19   47 1
  34   20   48 1
  35   21   22 2
  36   21   23 am
  37   23   24 1
  38   23   28 1
  39   24   25 1
  40   24   49 1
  41   24   50 1
  42   25   26 1
  43   25   51 1
  44   25   52 1
  45   26   27 1
  46   26   35 am
  47   27   28 1
  48   27   53 1
  49   27   54 1
  50   28   55 1
  51   28   56 1
  52   29   30 ar
  53   29   34 ar
  54   29   35 1
  55   30   31 ar
  56   30   57 1
  57   31   32 ar
  58   31   58 1
  59   32   33 ar
  60   32   59 1
  61   33   34 ar
  62   33   37 1
  63   35   36 2
  64   37   60 1
  65   37   61 1
  66   37   62 1
  67   38   63 1
  68   38   64 1
  69   38   65 1

#	End of record

