#	Name: ASD01410222
#	Creating user name:	WinNT
#	Creation time:	15. 06. 2019 19:17

#	Modifying user name:	WinNT
#	Modification time:	15. 06. 2019 19:17

#	Program:	/corina/corina34_cracker 3.40 0067  02.08.2006

@<TRIPOS>MOLECULE
ASD01410222
  42   44    0    0    0
SMALL
NO_CHARGES


@<TRIPOS>ATOM
   1 C1            -0.0163     1.3475     0.0095 C.2     
   2 C2             0.0021    -0.0041     0.0020 C.2     
   3 C3            -1.3321    -0.4376     0.0133 C.2     
   4 C4            -2.1146     0.7003     0.0274 C.2     
   5 O5            -1.2891     1.7679     0.0297 O.3     
   6 C6            -4.1759     1.9388     0.0546 C.2     
   7 S7            -3.4708     3.5687     0.0561 S.3     
   8 C8            -5.0402     4.3930     0.0687 C.2     
   9 N9            -5.9628     3.4599     0.0710 N.2     
  10 C10           -5.6233     2.1888     0.0644 C.2     
  11 C11           -3.5274     0.7396     0.0415 C.2     
  12 O12           -6.4473     1.2871     0.0659 O.2     
  13 N13           -5.2500     5.7478     0.0749 N.pl3   
  14 C14           -6.6159     6.2774     0.0851 C.3     
  15 C15            1.1990     2.2387     0.0026 C.3     
  16 C16            1.5965     2.5480    -1.4421 C.3     
  17 C17           -7.6530     8.0492    -1.3463 C.ar    
  18 C18           -6.6224     7.6617    -0.5104 C.ar    
  19 C19           -5.5979     8.5433    -0.2199 C.ar    
  20 C20           -5.6030     9.8132    -0.7650 C.ar    
  21 C21           -6.6345    10.2023    -1.6028 C.ar    
  22 C22           -7.6598     9.3183    -1.8933 C.ar    
  23 F23           -6.6408    11.4436    -2.1359 F       
  24 C24           -7.1203     6.3385     1.5039 C.2     
  25 O25           -6.4089     5.9754     2.4166 O.2     
  26 N26           -8.3620     6.7966     1.7585 N.am    
  27 H27            0.8800    -0.6329    -0.0108 H       
  28 H28           -1.6791    -1.4603     0.0108 H       
  29 H29           -4.0933    -0.1803     0.0420 H       
  30 H30           -4.4941     6.3556     0.0724 H       
  31 H31           -7.2626     5.6260    -0.5027 H       
  32 H32            0.9707     3.1685     0.5237 H       
  33 H33            2.0231     1.7331     0.5059 H       
  34 H34            1.8248     1.6182    -1.9631 H       
  35 H35            0.7724     3.0536    -1.9454 H       
  36 H36            2.4755     3.1926    -1.4470 H       
  37 H37           -8.4507     7.3582    -1.5758 H       
  38 H38           -4.7934     8.2397     0.4335 H       
  39 H39           -4.8029    10.5021    -0.5374 H       
  40 H40           -8.4647     9.6205    -2.5469 H       
  41 H41           -8.9309     7.0870     1.0285 H       
  42 H42           -8.6867     6.8359     2.6717 H       
@<TRIPOS>BOND
   1    1    2 2
   2    1   15 1
   3    1    5 1
   4    2    3 1
   5    2   27 1
   6    3    4 2
   7    3   28 1
   8    4    5 1
   9    4   11 1
  10    6    7 1
  11    6   10 1
  12    6   11 2
  13    7    8 1
  14    8    9 2
  15    8   13 1
  16    9   10 1
  17   10   12 2
  18   11   29 1
  19   13   14 1
  20   13   30 1
  21   14   18 1
  22   14   24 1
  23   14   31 1
  24   15   16 1
  25   15   32 1
  26   15   33 1
  27   16   34 1
  28   16   35 1
  29   16   36 1
  30   17   18 ar
  31   17   22 ar
  32   17   37 1
  33   18   19 ar
  34   19   20 ar
  35   19   38 1
  36   20   21 ar
  37   20   39 1
  38   21   22 ar
  39   21   23 1
  40   22   40 1
  41   24   25 2
  42   24   26 am
  43   26   41 1
  44   26   42 1

#	End of record

