#	Name: ASD01882181
#	Creating user name:	WinNT
#	Creation time:	15. 06. 2019 19:44

#	Modifying user name:	WinNT
#	Modification time:	15. 06. 2019 19:44

#	Program:	/corina/corina34_cracker 3.40 0067  02.08.2006

@<TRIPOS>MOLECULE
ASD01882181
  45   47    0    0    0
SMALL
NO_CHARGES


@<TRIPOS>ATOM
   1 C1            -0.0159     1.3220     0.0093 C.2     
   2 N2             0.0021    -0.0041     0.0020 N.2     
   3 C3             1.1523    -0.6857    -0.0126 C.2     
   4 C4             2.3835     0.0173    -0.0206 C.2     
   5 C5             2.3523     1.3664    -0.0131 C.2     
   6 N6             1.1484     2.0132     0.0019 N.pl3   
   7 O7            -1.0993     2.1290     0.0184 O.3     
   8 C8             0.8540     3.4562     0.0125 C.3     
   9 C9            -0.6831     3.5211     0.0242 C.3     
  10 O10            1.1423    -1.9071    -0.0187 O.2     
  11 C11           -1.1944     4.2379    -1.2270 C.3     
  12 O12           -2.6209     4.3119    -1.1842 O.3     
  13 C13           -3.2387     4.9235    -2.2291 C.ar    
  14 C14           -4.6229     5.0307    -2.2526 C.ar    
  15 C15           -5.2483     5.6531    -3.3165 C.ar    
  16 C16           -4.4963     6.1681    -4.3566 C.ar    
  17 C17           -3.1183     6.0620    -4.3352 C.ar    
  18 C18           -2.4875     5.4465    -3.2707 C.ar    
  19 C19           -5.1806     6.8459    -5.5157 C.3     
  20 C20           -4.1298     7.3215    -6.5210 C.3     
  21 C21           -4.8245     8.0096    -7.6977 C.3     
  22 C22           -6.1280     5.8569    -6.1978 C.3     
  23 C23           -5.9786     8.0473    -5.0052 C.3     
  24 Cl24          -5.5670     4.3833    -0.9476 Cl      
  25 H25            3.3237    -0.5140    -0.0321 H       
  26 H26            3.2727     1.9314    -0.0185 H       
  27 H27            1.2651     3.9237     0.9072 H       
  28 H28            1.2480     3.9334    -0.8848 H       
  29 H29           -1.0396     4.0220     0.9243 H       
  30 H30           -0.7793     5.2451    -1.2639 H       
  31 H31           -0.8857     3.6850    -2.1142 H       
  32 H32           -6.3248     5.7370    -3.3357 H       
  33 H33           -2.5336     6.4648    -5.1490 H       
  34 H34           -1.4105     5.3683    -3.2526 H       
  35 H35           -3.4548     8.0261    -6.0351 H       
  36 H36           -3.5613     6.4656    -6.8847 H       
  37 H37           -5.4995     7.3051    -8.1837 H       
  38 H38           -5.3930     8.8656    -7.3340 H       
  39 H39           -4.0759     8.3485    -8.4139 H       
  40 H40           -6.8766     5.5181    -5.4816 H       
  41 H41           -6.6229     6.3471    -7.0361 H       
  42 H42           -5.5595     5.0010    -6.5615 H       
  43 H43           -5.3036     8.7519    -4.5193 H       
  44 H44           -6.4735     8.5375    -5.8435 H       
  45 H45           -6.7272     7.7085    -4.2890 H       
@<TRIPOS>BOND
   1    1    2 2
   2    1    6 1
   3    1    7 1
   4    2    3 1
   5    3    4 1
   6    3   10 2
   7    4    5 2
   8    4   25 1
   9    5    6 1
  10    5   26 1
  11    6    8 1
  12    7    9 1
  13    8    9 1
  14    8   27 1
  15    8   28 1
  16    9   11 1
  17    9   29 1
  18   11   12 1
  19   11   30 1
  20   11   31 1
  21   12   13 1
  22   13   14 ar
  23   13   18 ar
  24   14   15 ar
  25   14   24 1
  26   15   16 ar
  27   15   32 1
  28   16   17 ar
  29   16   19 1
  30   17   18 ar
  31   17   33 1
  32   18   34 1
  33   19   20 1
  34   19   22 1
  35   19   23 1
  36   20   21 1
  37   20   35 1
  38   20   36 1
  39   21   37 1
  40   21   38 1
  41   21   39 1
  42   22   40 1
  43   22   41 1
  44   22   42 1
  45   23   43 1
  46   23   44 1
  47   23   45 1

#	End of record

