#	Name: ASD01840516
#	Creating user name:	WinNT
#	Creation time:	15. 06. 2019 19:37

#	Modifying user name:	WinNT
#	Modification time:	15. 06. 2019 19:37

#	Program:	/corina/corina34_cracker 3.40 0067  02.08.2006

@<TRIPOS>MOLECULE
ASD01840516
  47   50    0    0    0
SMALL
NO_CHARGES


@<TRIPOS>ATOM
   1 C1             2.6274    -0.5667     1.0248 C.3     
   2 C2             1.3130    -1.1277     0.5467 C.ar    
   3 C3             1.2114    -1.7411    -0.6884 C.ar    
   4 Cl4            2.6020    -1.8783    -1.7186 Cl      
   5 N5             0.0379    -2.2240    -1.0761 N.ar    
   6 C6            -1.0246    -2.1264    -0.3031 C.ar    
   7 C7            -2.3361    -2.6898    -0.7864 C.3     
   8 O8            -2.4492    -4.0536    -0.3751 O.3     
   9 N9            -0.9726    -1.5504     0.8809 N.ar    
  10 C10            0.1688    -1.0465     1.3417 C.ar    
  11 N11            0.2200    -0.4461     2.5894 N.3     
  12 C12           -0.7106     0.6872     2.6666 C.3     
  13 C13           -0.5232     1.4128     4.0009 C.3     
  14 C14           -0.7845     0.4346     5.1495 C.3     
  15 C15            0.1648    -0.7597     5.0182 C.3     
  16 C16           -0.0426    -1.4224     3.6544 C.3     
  17 O17           -0.5556     1.0915     6.3977 O.3     
  18 C18           -1.2061     0.5963     7.4844 C.ar    
  19 C19           -1.1209     1.2541     8.7059 C.ar    
  20 C20           -1.7755     0.7627     9.8153 C.ar    
  21 C21           -2.5332    -0.4023     9.7284 C.ar    
  22 O22           -3.2462    -1.0493    10.6815 O.3     
  23 C23           -3.8698    -2.2137    10.1385 C.3     
  24 C24           -3.4703    -2.2534     8.6787 C.2     
  25 O25           -3.7820    -3.0784     7.8459 O.2     
  26 C26           -2.6195    -1.0662     8.4964 C.ar    
  27 C27           -1.9574    -0.5585     7.3741 C.ar    
  28 H28            3.1971    -1.3506     1.5238 H       
  29 H29            3.1942    -0.1922     0.1724 H       
  30 H30            2.4416     0.2486     1.7240 H       
  31 H31           -3.1578    -2.1129    -0.3620 H       
  32 H32           -2.3768    -2.6338    -1.8742 H       
  33 H33           -3.2710    -4.4812    -0.6523 H       
  34 H34           -0.5113     1.3773     1.8468 H       
  35 H35           -1.7348     0.3217     2.5927 H       
  36 H36            0.4970     1.7906     4.0696 H       
  37 H37           -1.2249     2.2445     4.0645 H       
  38 H38           -1.8164     0.0864     5.1038 H       
  39 H39            1.1957    -0.4162     5.1029 H       
  40 H40           -0.0454    -1.4802     5.8086 H       
  41 H41           -1.0700    -1.7780     3.5759 H       
  42 H42            0.6418    -2.2645     3.5520 H       
  43 H43           -0.5361     2.1585     8.7867 H       
  44 H44           -1.6998     1.2844    10.7579 H       
  45 H45           -3.5108    -3.1062    10.6511 H       
  46 H46           -4.9533    -2.1371    10.2299 H       
  47 H47           -2.0293    -1.0696     6.4254 H       
@<TRIPOS>BOND
   1    1    2 1
   2    1   28 1
   3    1   29 1
   4    1   30 1
   5    2   10 ar
   6    2    3 ar
   7    3    4 1
   8    3    5 ar
   9    5    6 ar
  10    6    7 1
  11    6    9 ar
  12    7    8 1
  13    7   31 1
  14    7   32 1
  15    8   33 1
  16    9   10 ar
  17   10   11 1
  18   11   16 1
  19   11   12 1
  20   12   13 1
  21   12   34 1
  22   12   35 1
  23   13   14 1
  24   13   36 1
  25   13   37 1
  26   14   15 1
  27   14   17 1
  28   14   38 1
  29   15   16 1
  30   15   39 1
  31   15   40 1
  32   16   41 1
  33   16   42 1
  34   17   18 1
  35   18   27 ar
  36   18   19 ar
  37   19   20 ar
  38   19   43 1
  39   20   21 ar
  40   20   44 1
  41   21   26 ar
  42   21   22 1
  43   22   23 1
  44   23   24 1
  45   23   45 1
  46   23   46 1
  47   24   25 2
  48   24   26 1
  49   26   27 ar
  50   27   47 1

#	End of record

