#	Name: ASD01885441
#	Creating user name:	WinNT
#	Creation time:	15. 06. 2019 19:49

#	Modifying user name:	WinNT
#	Modification time:	15. 06. 2019 19:49

#	Program:	/corina/corina34_cracker 3.40 0067  02.08.2006

@<TRIPOS>MOLECULE
ASD01885441
  39   41    0    0    0
SMALL
NO_CHARGES


@<TRIPOS>ATOM
   1 C1             0.0345     1.4112     0.2339 C.ar    
   2 C2             0.0669     0.0432     0.5049 C.ar    
   3 N3            -1.0426    -0.7202     0.6740 N.2     
   4 C4            -2.1181    -0.6638    -0.0232 C.2     
   5 C5            -2.2866     0.3320    -1.1407 C.3     
   6 C6            -2.2301     1.7173    -0.5481 C.2     
   7 N7            -1.1387     2.1399     0.0897 N.am    
   8 C8             1.2330     2.1088     0.0892 C.ar    
   9 C9             2.4493     1.4571     0.2069 C.ar    
  10 C10            2.4824     0.0911     0.4719 C.ar    
  11 C11            1.3087    -0.6073     0.6190 C.ar    
  12 C12           -3.2168    -1.5977     0.2767 C.ar    
  13 O13           -3.1872     2.4547    -0.6542 O.2     
  14 C14           -3.0281    -2.6281     1.2035 C.ar    
  15 C15           -4.0574    -3.5037     1.4856 C.ar    
  16 C16           -5.2790    -3.3697     0.8560 C.ar    
  17 C17           -5.4825    -2.3449    -0.0724 C.ar    
  18 C18           -4.4509    -1.4534    -0.3588 C.ar    
  19 C19           -6.7504    -2.2083    -0.7238 C.1     
  20 N20           -7.7562    -2.0999    -1.2406 N.1     
  21 N21            3.6404     2.1691     0.0596 N.am    
  22 S22            4.5301     2.0161    -1.3287 S.o2    
  23 C23            3.4476     2.6612    -2.6335 C.3     
  24 O24            5.6409     2.8798    -1.1300 O.2     
  25 O25            4.7095     0.6143    -1.4773 O.2     
  26 H26           -1.4831     0.2094    -1.8669 H       
  27 H27           -3.2498     0.1791    -1.6275 H       
  28 H28           -1.1663     3.0248     0.4862 H       
  29 H29            1.2126     3.1687    -0.1171 H       
  30 H30            3.4299    -0.4193     0.5615 H       
  31 H31            1.3398    -1.6671     0.8247 H       
  32 H32           -2.0750    -2.7393     1.6992 H       
  33 H33           -3.9063    -4.2976     2.2020 H       
  34 H34           -6.0793    -4.0590     1.0813 H       
  35 H35           -4.6030    -0.6596    -1.0751 H       
  36 H36            3.9471     2.7536     0.7703 H       
  37 H37            3.2697     3.7235    -2.4659 H       
  38 H38            3.9246     2.5213    -3.6036 H       
  39 H39            2.4979     2.1265    -2.6151 H       
@<TRIPOS>BOND
   1    1    2 ar
   2    1    8 ar
   3    1    7 1
   4    2    3 1
   5    2   11 ar
   6    3    4 2
   7    4    5 1
   8    4   12 1
   9    5    6 1
  10    5   26 1
  11    5   27 1
  12    6    7 am
  13    6   13 2
  14    7   28 1
  15    8    9 ar
  16    8   29 1
  17    9   10 ar
  18    9   21 1
  19   10   11 ar
  20   10   30 1
  21   11   31 1
  22   12   14 ar
  23   12   18 ar
  24   14   15 ar
  25   14   32 1
  26   15   16 ar
  27   15   33 1
  28   16   17 ar
  29   16   34 1
  30   17   18 ar
  31   17   19 1
  32   18   35 1
  33   19   20 3
  34   21   22 am
  35   21   36 1
  36   22   23 1
  37   22   24 2
  38   22   25 2
  39   23   37 1
  40   23   38 1
  41   23   39 1

#	End of record

