#	Name: ASD02198234
#	Creating user name:	WinNT
#	Creation time:	15. 06. 2019 20:19

#	Modifying user name:	WinNT
#	Modification time:	15. 06. 2019 20:19

#	Program:	/corina/corina34_cracker 3.40 0067  02.08.2006

@<TRIPOS>MOLECULE
ASD02198234
  46   48    0    0    0
SMALL
NO_CHARGES


@<TRIPOS>ATOM
   1 C1             0.0302     1.2828     0.1461 C.2     
   2 C2             0.0643    -0.0945     0.0905 C.2     
   3 C3            -1.1163    -0.9050     0.0851 C.1     
   4 S4             1.6072     1.9309     0.1361 S.3     
   5 C5             2.3339     0.3340     0.0561 C.2     
   6 C6             1.3512    -0.6266     0.0402 C.2     
   7 C7             3.7180     0.0762     0.0141 C.2     
   8 C8             4.6748     1.1957    -0.1131 C.ar    
   9 O9             4.1270    -1.0707     0.0826 O.2     
  10 N10            1.6135    -1.9867    -0.0191 N.pl3   
  11 N11           -1.1212     2.0332     0.1968 N.pl3   
  12 N12           -2.0528    -1.5479     0.0808 N.1     
  13 C13           -1.0410     3.4949     0.2536 C.3     
  14 C14           -0.9134     4.0542    -1.1648 C.3     
  15 C15            5.9574     1.0854     0.4289 C.ar    
  16 C16           -2.3072     4.0501     0.9088 C.3     
  17 C17            6.8463     2.1307     0.3085 C.ar    
  18 C18            6.4681     3.2944    -0.3509 C.ar    
  19 C19            5.1926     3.4078    -0.8914 C.ar    
  20 C20            4.3004     2.3643    -0.7803 C.ar    
  21 O21            7.3464     4.3227    -0.4668 O.3     
  22 C22            7.3418     5.2776     0.5000 C.ar    
  23 C23            6.5156     5.1423     1.6066 C.ar    
  24 C24            8.1676     6.3868     0.3852 C.ar    
  25 C25            8.1610     7.3560     1.3695 C.ar    
  26 C26            7.3326     7.2216     2.4683 C.ar    
  27 C27            6.5129     6.1145     2.5879 C.ar    
  28 H28            2.5299    -2.3029    -0.0519 H       
  29 H29            0.8806    -2.6220    -0.0277 H       
  30 H30           -1.9864     1.5947     0.1949 H       
  31 H31           -0.1700     3.7885     0.8396 H       
  32 H32           -1.7843     3.7607    -1.7508 H       
  33 H33           -0.8537     5.1418    -1.1225 H       
  34 H34           -0.0113     3.6587    -1.6316 H       
  35 H35            6.2517     0.1818     0.9419 H       
  36 H36           -2.3981     3.6517     1.9193 H       
  37 H37           -2.2475     5.1377     0.9511 H       
  38 H38           -3.1781     3.7565     0.3228 H       
  39 H39            7.8382     2.0461     0.7272 H       
  40 H40            4.9022     4.3135    -1.4030 H       
  41 H41            3.3096     2.4529    -1.2009 H       
  42 H42            5.8750     4.2779     1.7003 H       
  43 H43            8.8151     6.4921    -0.4727 H       
  44 H44            8.8038     8.2194     1.2808 H       
  45 H45            7.3290     7.9806     3.2367 H       
  46 H46            5.8665     6.0121     3.4470 H       
@<TRIPOS>BOND
   1    1    2 2
   2    1    4 1
   3    1   11 1
   4    2    3 1
   5    2    6 1
   6    3   12 3
   7    4    5 1
   8    5    6 2
   9    5    7 1
  10    6   10 1
  11    7    8 1
  12    7    9 2
  13    8   15 ar
  14    8   20 ar
  15   10   28 1
  16   10   29 1
  17   11   13 1
  18   11   30 1
  19   13   14 1
  20   13   16 1
  21   13   31 1
  22   14   32 1
  23   14   33 1
  24   14   34 1
  25   15   17 ar
  26   15   35 1
  27   16   36 1
  28   16   37 1
  29   16   38 1
  30   17   18 ar
  31   17   39 1
  32   18   19 ar
  33   18   21 1
  34   19   20 ar
  35   19   40 1
  36   20   41 1
  37   21   22 1
  38   22   23 ar
  39   22   24 ar
  40   23   27 ar
  41   23   42 1
  42   24   25 ar
  43   24   43 1
  44   25   26 ar
  45   25   44 1
  46   26   27 ar
  47   26   45 1
  48   27   46 1

#	End of record

