#	Name: ASD01200268
#	Creating user name:	WinNT
#	Creation time:	15. 06. 2019 19:08

#	Modifying user name:	WinNT
#	Modification time:	15. 06. 2019 19:08

#	Program:	/corina/corina34_cracker 3.40 0067  02.08.2006

@<TRIPOS>MOLECULE
ASD01200268
  53   55    0    0    0
SMALL
NO_CHARGES


@<TRIPOS>ATOM
   1 C1            -0.1643     1.5430    -0.1196 C.ar    
   2 C2            -0.0284     0.1639    -0.1808 C.ar    
   3 C3            -1.1216    -0.6564     0.0601 C.ar    
   4 C4            -2.3535    -0.1006     0.3633 C.ar    
   5 C5            -2.4944     1.2863     0.4263 C.ar    
   6 C6            -1.3915     2.1071     0.1881 C.ar    
   7 O7             0.9095     2.3417    -0.3564 O.3     
   8 C8             0.6729     3.7503    -0.4014 C.3     
   9 C9             1.7545     4.4223    -1.2497 C.3     
  10 O10            3.0233     4.2724    -0.6097 O.3     
  11 C11            0.7112     4.3195     1.0182 C.3     
  12 C12           -3.8071     1.8841     0.7494 C.2     
  13 N13           -4.8701     1.0894     0.9838 N.am    
  14 O14           -3.9279     3.0923     0.8039 O.2     
  15 C15           -6.1224     1.6499     1.1972 C.ar    
  16 O16           -0.9833    -2.0069    -0.0019 O.3     
  17 C17           -1.4702    -2.6484    -1.0964 C.ar    
  18 C18           -1.3381    -4.0247    -1.2105 C.ar    
  19 C19           -1.8344    -4.6766    -2.3256 C.ar    
  20 C20           -2.4625    -3.9559    -3.3272 C.ar    
  21 C21           -2.5946    -2.5822    -3.2149 C.ar    
  22 C22           -2.1048    -1.9284    -2.0981 C.ar    
  23 C23            4.1084     4.8679    -1.3238 C.3     
  24 F24           -1.7056    -6.0168    -2.4372 F       
  25 F25           -3.2070    -1.8806    -4.1937 F       
  26 N26           -6.2877     2.9563     1.0456 N.ar    
  27 C27           -7.4565     3.5316     1.2367 C.ar    
  28 C28           -8.5676     2.7726     1.6093 C.ar    
  29 C29           -8.4206     1.3870     1.7768 C.ar    
  30 C30           -7.1882     0.8305     1.5620 C.ar    
  31 C31           -9.8762     3.4175     1.8242 C.2     
  32 O32          -10.8373     2.7485     2.1484 O.2     
  33 O33          -10.0061     4.7487     1.6611 O.3     
  34 H34            0.9308    -0.2727    -0.4169 H       
  35 H35           -3.2038    -0.7396     0.5503 H       
  36 H36           -1.4962     3.1810     0.2358 H       
  37 H37           -0.3054     3.9404    -0.8429 H       
  38 H38            1.7866     3.9552    -2.2340 H       
  39 H39            1.5250     5.4823    -1.3578 H       
  40 H40            1.6895     4.1294     1.4596 H       
  41 H41            0.5307     5.3939     0.9838 H       
  42 H42           -0.0594     3.8408     1.6225 H       
  43 H43           -4.7603     0.1258     1.0033 H       
  44 H44           -0.8479    -4.5870    -0.4295 H       
  45 H45           -2.8495    -4.4658    -4.1971 H       
  46 H46           -2.2083    -0.8569    -2.0106 H       
  47 H47            4.1894     4.4102    -2.3097 H       
  48 H48            3.9278     5.9373    -1.4334 H       
  49 H49            5.0357     4.7107    -0.7729 H       
  50 H50           -7.5564     4.5988     1.1046 H       
  51 H51           -9.2612     0.7731     2.0648 H       
  52 H52           -7.0419    -0.2328     1.6821 H       
  53 H53          -10.8834     5.1261     1.8132 H       
@<TRIPOS>BOND
   1    1    2 ar
   2    1    7 1
   3    1    6 ar
   4    2    3 ar
   5    2   34 1
   6    3    4 ar
   7    3   16 1
   8    4    5 ar
   9    4   35 1
  10    5    6 ar
  11    5   12 1
  12    6   36 1
  13    7    8 1
  14    8    9 1
  15    8   11 1
  16    8   37 1
  17    9   10 1
  18    9   38 1
  19    9   39 1
  20   10   23 1
  21   11   40 1
  22   11   41 1
  23   11   42 1
  24   12   13 am
  25   12   14 2
  26   13   15 1
  27   13   43 1
  28   15   26 ar
  29   15   30 ar
  30   16   17 1
  31   17   18 ar
  32   17   22 ar
  33   18   19 ar
  34   18   44 1
  35   19   20 ar
  36   19   24 1
  37   20   21 ar
  38   20   45 1
  39   21   22 ar
  40   21   25 1
  41   22   46 1
  42   23   47 1
  43   23   48 1
  44   23   49 1
  45   26   27 ar
  46   27   28 ar
  47   27   50 1
  48   28   29 ar
  49   28   31 1
  50   29   30 ar
  51   29   51 1
  52   30   52 1
  53   31   32 2
  54   31   33 1
  55   33   53 1

#	End of record

