#	Name: ASD01028132
#	Creating user name:	WinNT
#	Creation time:	15. 06. 2019 18:56

#	Modifying user name:	WinNT
#	Modification time:	15. 06. 2019 18:56

#	Program:	/corina/corina34_cracker 3.40 0067  02.08.2006

@<TRIPOS>MOLECULE
ASD01028132
  60   63    0    0    0
SMALL
NO_CHARGES


@<TRIPOS>ATOM
   1 C1             1.4714     0.7992     0.5708 C.ar    
   2 C2             1.5601    -0.5397     0.9020 C.ar    
   3 C3             1.9964    -1.4615    -0.0398 C.ar    
   4 C4             2.3445    -1.0356    -1.3180 C.ar    
   5 C5             2.2534     0.3124    -1.6457 C.ar    
   6 C6             1.8163     1.2259    -0.6978 C.ar    
   7 O7             2.7942    -1.7220    -2.4099 O.3     
   8 C8             2.5881    -0.8399    -3.5292 C.3     
   9 O9             2.6460     0.4741    -2.9433 O.3     
  10 N10            2.0866    -2.8178     0.2961 N.pl3   
  11 C11            3.3173    -3.4418     0.3226 C.ar    
  12 N12            4.4130    -2.8040    -0.0693 N.ar    
  13 C13            3.4453    -4.7767     0.7740 C.ar    
  14 C14            4.7363    -5.3606     0.7768 C.ar    
  15 N15            5.7769    -4.6264     0.3535 N.ar    
  16 C16            5.5990    -3.3904    -0.0490 C.ar    
  17 C17            2.3419    -5.5201     1.2110 C.ar    
  18 C18            2.5185    -6.8054     1.6377 C.ar    
  19 C19            3.7932    -7.3897     1.6436 C.ar    
  20 C20            4.8941    -6.6802     1.2185 C.ar    
  21 O21            1.4464    -7.5263     2.0618 O.3     
  22 C22            0.1745    -6.8757     2.0325 C.3     
  23 O23            3.9435    -8.6696     2.0734 O.3     
  24 C24            5.2668    -9.2087     2.0557 C.3     
  25 C25            1.1833    -0.9992     2.2869 C.3     
  26 N26            2.4000    -1.1880     3.0881 N.3     
  27 C27            3.0826     0.0923     3.3184 C.3     
  28 C28            2.0945    -1.8578     4.3594 C.3     
  29 C29            3.3836    -2.4192     4.9627 C.3     
  30 C30           -0.9017    -7.8364     2.5421 C.3     
  31 C31           -2.2636    -7.1398     2.5107 C.3     
  32 Br32          -3.6464    -8.3744     3.1655 Br      
  33 O33            4.2411    -1.3409     5.3420 O.3     
  34 H34            1.1274     1.5135     1.3041 H       
  35 H35            1.7448     2.2732    -0.9518 H       
  36 H36            3.3804    -0.9656    -4.2671 H       
  37 H37            1.6115    -1.0154    -3.9806 H       
  38 H38            1.2841    -3.3189     0.5101 H       
  39 H39            6.4582    -2.8281    -0.3836 H       
  40 H40            1.3561    -5.0790     1.2110 H       
  41 H41            5.8723    -7.1380     1.2259 H       
  42 H42            0.2037    -5.9918     2.6697 H       
  43 H43           -0.0583    -6.5788     1.0098 H       
  44 H44            5.2461   -10.2349     2.4226 H       
  45 H45            5.6510    -9.1952     1.0357 H       
  46 H46            5.9128    -8.6072     2.6952 H       
  47 H47            0.5501    -0.2481     2.7592 H       
  48 H48            0.6412    -1.9426     2.2218 H       
  49 H49            2.4720     0.7176     3.9697 H       
  50 H50            4.0479    -0.0904     3.7906 H       
  51 H51            3.2345     0.5995     2.3656 H       
  52 H52            1.6521    -1.1406     5.0508 H       
  53 H53            1.3919    -2.6719     4.1815 H       
  54 H54            3.1429    -3.0182     5.8409 H       
  55 H55            3.8886    -3.0427     4.2249 H       
  56 H56           -0.9309    -8.7203     1.9048 H       
  57 H57           -0.6690    -8.1333     3.5647 H       
  58 H58           -2.2343    -6.2560     3.1479 H       
  59 H59           -2.4963    -6.8429     1.4880 H       
  60 H60            5.0791    -1.6236     5.7330 H       
@<TRIPOS>BOND
   1    1    2 ar
   2    1    6 ar
   3    1   34 1
   4    2    3 ar
   5    2   25 1
   6    3    4 ar
   7    3   10 1
   8    4    5 ar
   9    4    7 1
  10    5    6 ar
  11    5    9 1
  12    6   35 1
  13    7    8 1
  14    8    9 1
  15    8   36 1
  16    8   37 1
  17   10   11 1
  18   10   38 1
  19   11   12 ar
  20   11   13 ar
  21   12   16 ar
  22   13   14 ar
  23   13   17 ar
  24   14   15 ar
  25   14   20 ar
  26   15   16 ar
  27   16   39 1
  28   17   18 ar
  29   17   40 1
  30   18   19 ar
  31   18   21 1
  32   19   20 ar
  33   19   23 1
  34   20   41 1
  35   21   22 1
  36   22   30 1
  37   22   42 1
  38   22   43 1
  39   23   24 1
  40   24   44 1
  41   24   45 1
  42   24   46 1
  43   25   26 1
  44   25   47 1
  45   25   48 1
  46   26   27 1
  47   26   28 1
  48   27   49 1
  49   27   50 1
  50   27   51 1
  51   28   29 1
  52   28   52 1
  53   28   53 1
  54   29   33 1
  55   29   54 1
  56   29   55 1
  57   30   31 1
  58   30   56 1
  59   30   57 1
  60   31   32 1
  61   31   58 1
  62   31   59 1
  63   33   60 1

#	End of record

