#	Name: ASD00170260
#	Creating user name:	WinNT
#	Creation time:	15. 06. 2019 18:31

#	Modifying user name:	WinNT
#	Modification time:	15. 06. 2019 18:31

#	Program:	/corina/corina34_cracker 3.40 0067  02.08.2006

@<TRIPOS>MOLECULE
ASD00170260
  28   30    0    0    0
SMALL
NO_CHARGES


@<TRIPOS>ATOM
   1 C1            -0.0382     1.3653    -0.1428 C.2     
   2 C2             0.0053     0.0022    -0.0033 C.2     
   3 C3            -1.3086    -0.6096     0.1739 C.ar    
   4 C4            -2.3376     0.3330     0.1634 C.ar    
   5 S5            -1.6878     1.9506    -0.0555 S.3     
   6 C6            -1.6602    -1.9649     0.3466 C.ar    
   7 C7            -2.9730    -2.3014     0.4949 C.ar    
   8 N8            -3.9226    -1.3824     0.4795 N.ar    
   9 C9            -3.6528    -0.1043     0.3228 C.ar    
  10 N10            1.0640     2.1657    -0.3213 N.pl3   
  11 C11            1.2098    -0.7418    -0.0295 C.2     
  12 C12            1.9173    -1.0489     1.2334 C.ar    
  13 O13            1.6636    -1.1290    -1.0916 O.2     
  14 C14            3.0438    -1.8725     1.2230 C.ar    
  15 C15            3.6992    -2.1545     2.4038 C.ar    
  16 C16            3.2419    -1.6228     3.5965 C.ar    
  17 C17            2.1256    -0.8055     3.6135 C.ar    
  18 C18            1.4643    -0.5115     2.4389 C.ar    
  19 H19           -0.8967    -2.7286     0.3608 H       
  20 H20           -3.2421    -3.3390     0.6271 H       
  21 H21           -4.4588     0.6145     0.3162 H       
  22 H22            1.9539     1.7822    -0.2789 H       
  23 H23            0.9522     3.1144    -0.4897 H       
  24 H24            3.4016    -2.2884     0.2928 H       
  25 H25            4.5710    -2.7921     2.3972 H       
  26 H26            3.7583    -1.8469     4.5181 H       
  27 H27            1.7735    -0.3936     4.5477 H       
  28 H28            0.5930     0.1266     2.4535 H       
@<TRIPOS>BOND
   1    1    2 2
   2    1   10 1
   3    1    5 1
   4    2    3 1
   5    2   11 1
   6    3    4 ar
   7    3    6 ar
   8    4    5 1
   9    4    9 ar
  10    6    7 ar
  11    6   19 1
  12    7    8 ar
  13    7   20 1
  14    8    9 ar
  15    9   21 1
  16   10   22 1
  17   10   23 1
  18   11   12 1
  19   11   13 2
  20   12   14 ar
  21   12   18 ar
  22   14   15 ar
  23   14   24 1
  24   15   16 ar
  25   15   25 1
  26   16   17 ar
  27   16   26 1
  28   17   18 ar
  29   17   27 1
  30   18   28 1

#	End of record

