#	Name: ASD01901331
#	Creating user name:	WinNT
#	Creation time:	15. 06. 2019 19:53

#	Modifying user name:	WinNT
#	Modification time:	15. 06. 2019 19:53

#	Program:	/corina/corina34_cracker 3.40 0067  02.08.2006

@<TRIPOS>MOLECULE
ASD01901331
  42   45    0    0    0
SMALL
NO_CHARGES


@<TRIPOS>ATOM
   1 C1            -0.0169     1.3964     0.0097 C.ar    
   2 C2             1.1782     2.1011     0.0021 C.ar    
   3 C3             2.3830     1.4205    -0.0131 C.ar    
   4 C4             2.4025     0.0346    -0.0212 C.ar    
   5 C5             1.2200    -0.6778    -0.0142 C.ar    
   6 C6             0.0021    -0.0041     0.0020 C.ar    
   7 C7            -1.2707    -0.7663     0.0106 C.2     
   8 N8            -3.1789    -1.5374    -1.1468 N.2     
   9 C9            -2.0556    -0.8625    -1.1593 C.2     
  10 C10           -1.6975    -1.3902     1.1496 C.2     
  11 N11           -2.8722    -2.0829     1.1226 N.pl3   
  12 C12           -3.6081    -2.1482    -0.0322 C.2     
  13 C13           -3.5491    -2.7964     2.0746 C.2     
  14 C14           -4.6678    -3.2757     1.4903 C.2     
  15 N15           -4.6896    -2.8736     0.2162 N.2     
  16 C16           -5.7177    -4.1217     2.1633 C.3     
  17 O17           -5.3493    -4.3435     3.5260 O.3     
  18 C18           -6.1954    -5.0938     4.2796 C.ar    
  19 C19           -7.3536    -5.6108     3.7175 C.ar    
  20 C20           -5.8996    -5.3488     5.6109 C.ar    
  21 C21           -6.7613    -6.1118     6.3748 C.ar    
  22 C22           -7.9176    -6.6215     5.8137 C.ar    
  23 C23           -8.2121    -6.3732     4.4858 C.ar    
  24 F24            3.5450     2.1097    -0.0205 F       
  25 S25           -1.5526     2.2599     0.0364 S.3     
  26 C26           -1.0420     4.0006     0.0383 C.3     
  27 H27            1.1682     3.1810     0.0076 H       
  28 H28            3.3465    -0.4900    -0.0333 H       
  29 H29            1.2399    -1.7576    -0.0212 H       
  30 H30           -1.7292    -0.3779    -2.0676 H       
  31 H31           -1.1136    -1.3357     2.0565 H       
  32 H32           -3.2454    -2.9475     3.1000 H       
  33 H33           -6.6779    -3.6072     2.1256 H       
  34 H34           -5.7980    -5.0790     1.6482 H       
  35 H35           -7.5840    -5.4171     2.6803 H       
  36 H36           -4.9962    -4.9514     6.0495 H       
  37 H37           -6.5315    -6.3105     7.4112 H       
  38 H38           -8.5897    -7.2183     6.4124 H       
  39 H39           -9.1138    -6.7759     4.0486 H       
  40 H40           -0.4339     4.1999     0.9207 H       
  41 H41           -0.4595     4.2093    -0.8591 H       
  42 H42           -1.9257     4.6384     0.0543 H       
@<TRIPOS>BOND
   1    1    6 ar
   2    1    2 ar
   3    1   25 1
   4    2    3 ar
   5    2   27 1
   6    3    4 ar
   7    3   24 1
   8    4    5 ar
   9    4   28 1
  10    5    6 ar
  11    5   29 1
  12    6    7 1
  13    7   10 2
  14    7    9 1
  15    8    9 2
  16    8   12 1
  17    9   30 1
  18   10   11 1
  19   10   31 1
  20   11   13 1
  21   11   12 1
  22   12   15 2
  23   13   14 2
  24   13   32 1
  25   14   15 1
  26   14   16 1
  27   16   17 1
  28   16   33 1
  29   16   34 1
  30   17   18 1
  31   18   20 ar
  32   18   19 ar
  33   19   23 ar
  34   19   35 1
  35   20   21 ar
  36   20   36 1
  37   21   22 ar
  38   21   37 1
  39   22   23 ar
  40   22   38 1
  41   23   39 1
  42   25   26 1
  43   26   40 1
  44   26   41 1
  45   26   42 1

#	End of record

