#	Name: ASD01948032
#	Creating user name:	WinNT
#	Creation time:	15. 06. 2019 20:13

#	Modifying user name:	WinNT
#	Modification time:	15. 06. 2019 20:13

#	Program:	/corina/corina34_cracker 3.40 0067  02.08.2006

@<TRIPOS>MOLECULE
ASD01948032
  67   70    0    0    0
SMALL
NO_CHARGES


@<TRIPOS>ATOM
   1 C1            -3.7068     1.0532     1.7448 C.2     
   2 C2            -3.5186    -0.2987     1.5847 C.2     
   3 C3            -4.2197    -0.9952     0.5871 C.2     
   4 C4            -5.1012    -0.2973    -0.2292 C.2     
   5 C5            -5.2635     1.0714    -0.0342 C.2     
   6 N6            -4.5769     1.7173     0.9321 N.am    
   7 N7            -3.1109     1.8981     2.6713 N.am    
   8 C8            -3.6118     3.2619     2.4723 C.3     
   9 C9            -4.6002     3.1426     1.3015 C.3     
  10 C10           -2.2147     1.5242     3.6059 C.2     
  11 O11           -1.2357     0.8798     3.2854 O.2     
  12 O12           -2.4043     1.8646     4.8947 O.3     
  13 O13           -6.0360     1.6957    -0.7466 O.2     
  14 C14           -5.8702    -1.0117    -1.3105 C.3     
  15 N15           -4.0346    -2.3591     0.4188 N.pl3   
  16 C16           -5.0064    -3.2582     0.8716 C.ar    
  17 C17           -5.5818    -4.1661    -0.0118 C.ar    
  18 C18           -6.5417    -5.0527     0.4395 C.ar    
  19 C19           -6.9299    -5.0367     1.7679 C.ar    
  20 C20           -6.3593    -4.1344     2.6474 C.ar    
  21 C21           -5.3945    -3.2500     2.2042 C.ar    
  22 F22           -5.2033    -4.1810    -1.3086 F       
  23 Br23          -8.2436    -6.2504     2.3816 Br      
  24 N24           -2.6200    -0.9873     2.4232 N.am    
  25 S25           -1.7797    -2.2911     1.8432 S.o2    
  26 O26           -0.8778    -2.6208     2.8905 O.2     
  27 O27           -2.7885    -3.2029     1.4309 O.2     
  28 C28           -0.8788    -1.6463     0.4068 C.3     
  29 C29            0.1964    -2.5413    -0.2127 C.3     
  30 C30           -1.1289    -2.3193    -0.9443 C.3     
  31 C31           -0.6267    -0.1372     0.4089 C.3     
  32 C32           -0.0176     0.2722    -0.9073 C.2     
  33 C33            1.0826     0.9831    -0.9269 C.2     
  34 C34           -1.3428     1.5310     5.8276 C.3     
  35 C35           -0.0266     2.1415     5.3419 C.3     
  36 C36           -1.6847     2.0899     7.2102 C.3     
  37 C37           -1.1986     0.0103     5.9136 C.3     
  38 H38           -4.1267     3.6124     3.3668 H       
  39 H39           -2.7931     3.9342     2.2156 H       
  40 H40           -4.2735     3.7572     0.4627 H       
  41 H41           -5.6004     3.4355     1.6205 H       
  42 H42           -6.7756    -1.4457    -0.8863 H       
  43 H43           -6.1394    -0.3029    -2.0937 H       
  44 H44           -5.2517    -1.8032    -1.7338 H       
  45 H45           -3.2313    -2.6900    -0.0129 H       
  46 H46           -6.9892    -5.7581    -0.2450 H       
  47 H47           -6.6651    -4.1241     3.6831 H       
  48 H48           -4.9464    -2.5493     2.8931 H       
  49 H49           -2.4934    -0.6977     3.3403 H       
  50 H50            1.0832    -2.0549    -0.6191 H       
  51 H51            0.3625    -3.5175     0.2428 H       
  52 H52           -1.8347    -3.1495    -0.9701 H       
  53 H53           -1.1140    -1.6869    -1.8320 H       
  54 H54           -1.5707     0.3887     0.5516 H       
  55 H55            0.0563     0.1159     1.2198 H       
  56 H56           -0.4880    -0.0205    -1.8343 H       
  57 H57            1.5192     1.2765    -1.8702 H       
  58 H58            1.5530     1.2758     0.0001 H       
  59 H59           -0.1569     3.2131     5.1911 H       
  60 H60            0.7499     1.9713     6.0878 H       
  61 H61            0.2650     1.6749     4.4010 H       
  62 H62           -2.6224     1.6550     7.5562 H       
  63 H63           -0.8879     1.8395     7.9105 H       
  64 H64           -1.7874     3.1733     7.1489 H       
  65 H65           -0.8669    -0.3783     4.9507 H       
  66 H66           -0.4653    -0.2424     6.6794 H       
  67 H67           -2.1608    -0.4319     6.1719 H       
@<TRIPOS>BOND
   1    1    2 2
   2    1    6 1
   3    1    7 1
   4    2    3 1
   5    2   24 1
   6    3    4 2
   7    3   15 1
   8    4    5 1
   9    4   14 1
  10    5    6 am
  11    5   13 2
  12    6    9 1
  13    7    8 1
  14    7   10 am
  15    8    9 1
  16    8   38 1
  17    8   39 1
  18    9   40 1
  19    9   41 1
  20   10   11 2
  21   10   12 1
  22   12   34 1
  23   14   42 1
  24   14   43 1
  25   14   44 1
  26   15   16 1
  27   15   45 1
  28   16   17 ar
  29   16   21 ar
  30   17   18 ar
  31   17   22 1
  32   18   19 ar
  33   18   46 1
  34   19   20 ar
  35   19   23 1
  36   20   21 ar
  37   20   47 1
  38   21   48 1
  39   24   25 am
  40   24   49 1
  41   25   26 2
  42   25   27 2
  43   25   28 1
  44   28   29 1
  45   28   30 1
  46   28   31 1
  47   29   30 1
  48   29   50 1
  49   29   51 1
  50   30   52 1
  51   30   53 1
  52   31   32 1
  53   31   54 1
  54   31   55 1
  55   32   33 2
  56   32   56 1
  57   33   57 1
  58   33   58 1
  59   34   35 1
  60   34   37 1
  61   34   36 1
  62   35   59 1
  63   35   60 1
  64   35   61 1
  65   36   62 1
  66   36   63 1
  67   36   64 1
  68   37   65 1
  69   37   66 1
  70   37   67 1

#	End of record

