#	Name: ASD05313026
#	Creating user name:	WinNT
#	Creation time:	15. 06. 2019 20:58

#	Modifying user name:	WinNT
#	Modification time:	15. 06. 2019 20:58

#	Program:	/corina/corina34_cracker 3.40 0067  02.08.2006

@<TRIPOS>MOLECULE
ASD05313026
  41   44    0    0    0
SMALL
NO_CHARGES


@<TRIPOS>ATOM
   1 C1            -0.0736     0.8190     1.0170 C.2     
   2 C2             0.1127    -0.6176     0.5915 C.3     
   3 N3             0.9409     1.7391     1.0431 N.pl3   
   4 N4             1.4569    -0.7161    -0.0086 N.am    
   5 C5             2.5718    -0.0378     0.6692 C.3     
   6 C6             2.3263     1.4760     0.6588 C.3     
   7 N7            -0.8911     2.6464     1.6949 N.2     
   8 N8            -1.1510     1.4151     1.4166 N.2     
   9 C9             0.3833     2.8947     1.4833 C.2     
  10 C10            1.6577    -1.4093    -1.1468 C.2     
  11 O11            2.7498    -1.3983    -1.6806 O.2     
  12 C12            0.5503    -2.1828    -1.7459 C.ar    
  13 C13            0.3185    -2.1255    -3.1227 C.ar    
  14 C14           -0.7185    -2.8513    -3.6753 C.ar    
  15 C15           -1.5262    -3.6324    -2.8688 C.ar    
  16 C16           -1.3019    -3.6927    -1.5046 C.ar    
  17 C17           -0.2657    -2.9784    -0.9400 C.ar    
  18 C18           -0.9709    -2.7916    -5.1598 C.3     
  19 F19           -2.0647    -3.6030    -5.4799 F       
  20 F20           -1.2443    -1.4714    -5.5336 F       
  21 F21            0.1621    -3.2448    -5.8440 F       
  22 Cl22           1.3310    -1.1445    -4.1358 Cl      
  23 N23            1.0321     4.1040     1.6757 N.3     
  24 C24            0.0963     5.1341     2.1637 C.3     
  25 C25            1.1982     5.6002     3.1256 C.3     
  26 C26            1.6840     4.1495     2.9979 C.3     
  27 H27            0.0430    -1.2746     1.4584 H       
  28 H28           -0.6442    -0.8890    -0.1443 H       
  29 H29            2.6389    -0.3884     1.6991 H       
  30 H30            3.5031    -0.2588     0.1478 H       
  31 H31            2.5075     1.8678    -0.3421 H       
  32 H32            2.9990     1.9589     1.3675 H       
  33 H33           -2.3361    -4.1978    -3.3057 H       
  34 H34           -1.9371    -4.3043    -0.8810 H       
  35 H35           -0.0891    -3.0309     0.1242 H       
  36 H36           -0.1641     5.8765     1.4093 H       
  37 H37           -0.7767     4.7227     2.6702 H       
  38 H38            1.8790     6.3378     2.7006 H       
  39 H39            0.8397     5.8649     4.1203 H       
  40 H40            1.2345     3.4754     3.7270 H       
  41 H41            2.7690     4.0575     2.9505 H       
@<TRIPOS>BOND
   1    1    2 1
   2    1    3 1
   3    1    8 2
   4    2    4 1
   5    2   27 1
   6    2   28 1
   7    3    6 1
   8    3    9 1
   9    4    5 1
  10    4   10 am
  11    5    6 1
  12    5   29 1
  13    5   30 1
  14    6   31 1
  15    6   32 1
  16    7    8 1
  17    7    9 2
  18    9   23 1
  19   10   11 2
  20   10   12 1
  21   12   13 ar
  22   12   17 ar
  23   13   14 ar
  24   13   22 1
  25   14   15 ar
  26   14   18 1
  27   15   16 ar
  28   15   33 1
  29   16   17 ar
  30   16   34 1
  31   17   35 1
  32   18   19 1
  33   18   20 1
  34   18   21 1
  35   23   24 1
  36   23   26 1
  37   24   25 1
  38   24   36 1
  39   24   37 1
  40   25   26 1
  41   25   38 1
  42   25   39 1
  43   26   40 1
  44   26   41 1

#	End of record

