#	Name: ASD03430384
#	Creating user name:	WinNT
#	Creation time:	15. 06. 2019 20:41

#	Modifying user name:	WinNT
#	Modification time:	15. 06. 2019 20:41

#	Program:	/corina/corina34_cracker 3.40 0067  02.08.2006

@<TRIPOS>MOLECULE
ASD03430384
  52   56    0    0    0
SMALL
NO_CHARGES


@<TRIPOS>ATOM
   1 N1             0.1561     1.8627     0.3528 N.am    
   2 C2             0.5568     0.8159     1.0938 C.2     
   3 C3             2.0655     0.8927     1.1944 C.3     
   4 C4             2.4240     2.1292     0.4027 C.ar    
   5 C5             3.6231     2.7407     0.1133 C.ar    
   6 C6             3.6432     3.8912    -0.6556 C.ar    
   7 C7             2.4577     4.4221    -1.1304 C.ar    
   8 C8             1.2550     3.8114    -0.8419 C.ar    
   9 C9             1.2266     2.6526    -0.0682 C.ar    
  10 O10           -0.1561    -0.0310     1.5894 O.2     
  11 O11            2.4698     1.0361     2.5574 O.3     
  12 C12           -1.2434     2.1395     0.0197 C.3     
  13 C13           -1.7643     1.0621    -0.8963 C.ar    
  14 C14           -2.8762     1.3010    -1.6821 C.ar    
  15 C15           -3.3540     0.3128    -2.5223 C.ar    
  16 C16           -2.7196    -0.9142    -2.5771 C.ar    
  17 C17           -1.6072    -1.1528    -1.7920 C.ar    
  18 C18           -1.1268    -0.1630    -0.9550 C.ar    
  19 C19           -2.0648     2.1652     1.2829 C.ar    
  20 C20           -2.3256     3.3674     1.9134 C.ar    
  21 C21           -3.0790     3.3910     3.0722 C.ar    
  22 C22           -3.5719     2.2124     3.6002 C.ar    
  23 C23           -3.3118     1.0102     2.9693 C.ar    
  24 C24           -2.5621     0.9871     1.8081 C.ar    
  25 C25            2.6984    -0.3294     0.5803 C.ar    
  26 C26            2.4577    -0.6415    -0.7502 C.ar    
  27 C27            3.0415    -1.7668    -1.3128 C.ar    
  28 C28            3.8615    -2.5746    -0.5470 C.ar    
  29 C29            4.0992    -2.2611     0.7793 C.ar    
  30 C30            3.5229    -1.1362     1.3400 C.ar    
  31 O31            1.6509     0.1539    -1.5006 O.3     
  32 Br32           4.6581    -4.1092    -1.3127 Br      
  33 H33            4.5467     2.3233     0.4862 H       
  34 H34            4.5822     4.3733    -0.8840 H       
  35 H35            2.4736     5.3201    -1.7301 H       
  36 H36            0.3334     4.2321    -1.2163 H       
  37 H37            2.2111     0.2966     3.1243 H       
  38 H38           -1.3139     3.1060    -0.4792 H       
  39 H39           -3.3718     2.2596    -1.6393 H       
  40 H40           -4.2232     0.4992    -3.1357 H       
  41 H41           -3.0934    -1.6865    -3.2330 H       
  42 H42           -1.1117    -2.1115    -1.8345 H       
  43 H43           -0.2554    -0.3482    -0.3443 H       
  44 H44           -1.9405     4.2882     1.5009 H       
  45 H45           -3.2822     4.3302     3.5652 H       
  46 H46           -4.1599     2.2307     4.5060 H       
  47 H47           -3.6966     0.0894     3.3820 H       
  48 H48           -2.3620     0.0483     1.3131 H       
  49 H49            2.8554    -2.0120    -2.3480 H       
  50 H50            4.7397    -2.8933     1.3763 H       
  51 H51            3.7138    -0.8908     2.3743 H       
  52 H52            2.1170     0.8673    -1.9577 H       
@<TRIPOS>BOND
   1    1    2 am
   2    1    9 1
   3    1   12 1
   4    2    3 1
   5    2   10 2
   6    3    4 1
   7    3   11 1
   8    3   25 1
   9    4    5 ar
  10    4    9 ar
  11    5    6 ar
  12    5   33 1
  13    6    7 ar
  14    6   34 1
  15    7    8 ar
  16    7   35 1
  17    8    9 ar
  18    8   36 1
  19   11   37 1
  20   12   13 1
  21   12   19 1
  22   12   38 1
  23   13   14 ar
  24   13   18 ar
  25   14   15 ar
  26   14   39 1
  27   15   16 ar
  28   15   40 1
  29   16   17 ar
  30   16   41 1
  31   17   18 ar
  32   17   42 1
  33   18   43 1
  34   19   20 ar
  35   19   24 ar
  36   20   21 ar
  37   20   44 1
  38   21   22 ar
  39   21   45 1
  40   22   23 ar
  41   22   46 1
  42   23   24 ar
  43   23   47 1
  44   24   48 1
  45   25   26 ar
  46   25   30 ar
  47   26   27 ar
  48   26   31 1
  49   27   28 ar
  50   27   49 1
  51   28   29 ar
  52   28   32 1
  53   29   30 ar
  54   29   50 1
  55   30   51 1
  56   31   52 1

#	End of record

