#	Name: ASD02508485
#	Creating user name:	WinNT
#	Creation time:	15. 06. 2019 20:24

#	Modifying user name:	WinNT
#	Modification time:	15. 06. 2019 20:24

#	Program:	/corina/corina34_cracker 3.40 0067  02.08.2006

@<TRIPOS>MOLECULE
ASD02508485
  39   41    0    0    0
SMALL
NO_CHARGES


@<TRIPOS>ATOM
   1 C1             0.0079     1.4206     0.0933 C.2     
   2 C2            -0.0211     0.0333    -0.0885 C.2     
   3 C3             1.2569    -0.4069    -0.1462 C.2     
   4 N4             2.0700     0.6720    -0.0048 N.pl3   
   5 N5             1.2578     1.8038     0.1436 N.2     
   6 C6             3.4684     0.6557    -0.0062 C.ar    
   7 C7             4.1655     1.4431    -0.9160 C.ar    
   8 N8             4.1158    -0.1044     0.8616 N.ar    
   9 C9             5.4336    -0.1493     0.8945 C.ar    
  10 C10            6.1905     0.6022     0.0170 C.ar    
  11 C11            5.5504     1.4172    -0.9062 C.ar    
  12 S12            1.7731    -2.0774    -0.3643 S.o2    
  13 N13            1.7542    -2.3879    -1.9908 N.am    
  14 C14            2.6306    -1.7086    -2.8425 C.ar    
  15 C15            2.1659    -1.1770    -4.0387 C.ar    
  16 O16            3.1346    -2.1325     0.0389 O.2     
  17 O17            0.7587    -2.8892     0.2110 O.2     
  18 C18            3.9657    -1.5593    -2.4911 C.ar    
  19 C19            4.8298    -0.8878    -3.3341 C.ar    
  20 C20            4.3657    -0.3638    -4.5285 C.ar    
  21 C21            3.0333    -0.5065    -4.8783 C.ar    
  22 C22            2.5311     0.0646    -6.1794 C.3     
  23 Cl23           3.3120     2.4441    -2.0488 Cl      
  24 F24            5.2124     0.2929    -5.3513 F       
  25 C25            7.6955     0.5426     0.0656 C.3     
  26 F26            8.0949    -0.3380     1.0766 F       
  27 F27            8.1843     0.0921    -1.1654 F       
  28 F28            8.2044     1.8186     0.3307 F       
  29 H29           -0.8546     2.0656     0.1738 H       
  30 H30           -0.9076    -0.5783    -0.1684 H       
  31 H31            5.9274    -0.7819     1.6174 H       
  32 H32            6.1190     2.0148    -1.6033 H       
  33 H33            1.1351    -3.0411    -2.3527 H       
  34 H34            1.1270    -1.2884    -4.3120 H       
  35 H35            4.3281    -1.9676    -1.5593 H       
  36 H36            5.8682    -0.7712    -3.0611 H       
  37 H37            2.6291    -0.6833    -6.9663 H       
  38 H38            1.4831     0.3446    -6.0728 H       
  39 H39            3.1179     0.9454    -6.4401 H       
@<TRIPOS>BOND
   1    1    2 1
   2    1    5 2
   3    1   29 1
   4    2    3 2
   5    2   30 1
   6    3    4 1
   7    3   12 1
   8    4    5 1
   9    4    6 1
  10    6    7 ar
  11    6    8 ar
  12    7   23 1
  13    7   11 ar
  14    8    9 ar
  15    9   10 ar
  16    9   31 1
  17   10   11 ar
  18   10   25 1
  19   11   32 1
  20   12   13 am
  21   12   16 2
  22   12   17 2
  23   13   14 1
  24   13   33 1
  25   14   18 ar
  26   14   15 ar
  27   15   21 ar
  28   15   34 1
  29   18   19 ar
  30   18   35 1
  31   19   20 ar
  32   19   36 1
  33   20   21 ar
  34   20   24 1
  35   21   22 1
  36   22   37 1
  37   22   38 1
  38   22   39 1
  39   25   26 1
  40   25   27 1
  41   25   28 1

#	End of record

