#	Name: ASD03330903
#	Creating user name:	WinNT
#	Creation time:	15. 06. 2019 20:38

#	Modifying user name:	WinNT
#	Modification time:	15. 06. 2019 20:38

#	Program:	/corina/corina34_cracker 3.40 0067  02.08.2006

@<TRIPOS>MOLECULE
ASD03330903
  59   61    0    0    0
SMALL
NO_CHARGES


@<TRIPOS>ATOM
   1 N1            -0.2603     1.1915    -0.6739 N.pl3   
   2 C2            -0.3132    -0.1377    -0.3928 C.2     
   3 C3             0.8755    -1.0352    -0.1680 C.3     
   4 N4             1.8062    -0.3786     0.7633 N.3     
   5 C5             2.7647     0.4658     0.0478 C.3     
   6 C6             2.1245     1.0919    -1.1879 C.3     
   7 C7             0.9617     1.9952    -0.7679 C.3     
   8 C8            -1.5434     1.6262    -0.8364 C.2     
   9 N9            -2.3561     0.6135    -0.6461 N.2     
  10 C10           -1.6282    -0.4902    -0.3674 C.2     
  11 C11           -2.1619    -1.8347    -0.0868 C.2     
  12 O12           -1.4013    -2.7534     0.1511 O.2     
  13 N13           -3.4930    -2.0464    -0.0938 N.am    
  14 C14            2.4982    -1.3675     1.6006 C.3     
  15 C15           -3.2206     3.2682    -1.6847 C.ar    
  16 C16           -1.9506     3.0085    -1.1706 C.ar    
  17 C17           -1.0672     4.0768    -0.9753 C.ar    
  18 C18           -1.4951     5.3502    -1.3026 C.ar    
  19 C19           -2.7736     5.5267    -1.8091 C.ar    
  20 N20           -3.5851     4.4986    -1.9820 N.ar    
  21 F21           -3.1962     6.7691    -2.1304 F       
  22 C22           -5.3806    -3.5284    -0.4538 C.2     
  23 C23           -4.0235    -3.3831     0.1852 C.3     
  24 C24           -4.1487    -3.5767     1.6977 C.3     
  25 C25           -5.1719    -2.5856     2.2558 C.3     
  26 O26           -6.0621    -2.5465    -0.6597 O.2     
  27 N27           -5.8370    -4.7494    -0.7964 N.am    
  28 C28           -7.1997    -4.9041    -1.3114 C.3     
  29 C29           -4.6093    -5.0056     1.9926 C.3     
  30 C30           -2.7899    -3.3326     2.3572 C.3     
  31 H31            0.5420    -1.9819     0.2571 H       
  32 H32            1.3786    -1.2181    -1.1174 H       
  33 H33            3.1102     1.2577     0.7123 H       
  34 H34            3.6170    -0.1406    -0.2588 H       
  35 H35            2.8686     1.6835    -1.7212 H       
  36 H36            1.7528     0.3035    -1.8423 H       
  37 H37            0.8246     2.7814    -1.5103 H       
  38 H38            1.1794     2.4423     0.2020 H       
  39 H39           -4.0996    -1.3137    -0.2836 H       
  40 H40            3.0056    -2.0918     0.9633 H       
  41 H41            3.2303    -0.8618     2.2302 H       
  42 H42            1.7722    -1.8827     2.2296 H       
  43 H43           -3.9102     2.4525    -1.8444 H       
  44 H44           -0.0766     3.9105    -0.5786 H       
  45 H45           -0.8407     6.1982    -1.1649 H       
  46 H46           -3.3476    -4.1347    -0.2227 H       
  47 H47           -6.1399    -2.7595     1.7860 H       
  48 H48           -5.2610    -2.7235     3.3334 H       
  49 H49           -4.8437    -1.5676     2.0457 H       
  50 H50           -5.2631    -5.5257    -0.7020 H       
  51 H51           -7.9124    -4.5569    -0.5633 H       
  52 H52           -7.3131    -4.3156    -2.2218 H       
  53 H53           -7.3876    -5.9548    -1.5322 H       
  54 H54           -3.8439    -5.7091     1.6648 H       
  55 H55           -4.7735    -5.1206     3.0640 H       
  56 H56           -5.5386    -5.2052     1.4591 H       
  57 H57           -2.4617    -2.3146     2.1471 H       
  58 H58           -2.8790    -3.4705     3.4348 H       
  59 H59           -2.0609    -4.0387     1.9596 H       
@<TRIPOS>BOND
   1    1    2 1
   2    1    7 1
   3    1    8 1
   4    2    3 1
   5    2   10 2
   6    3    4 1
   7    3   31 1
   8    3   32 1
   9    4    5 1
  10    4   14 1
  11    5    6 1
  12    5   33 1
  13    5   34 1
  14    6    7 1
  15    6   35 1
  16    6   36 1
  17    7   37 1
  18    7   38 1
  19    8    9 2
  20    8   16 1
  21    9   10 1
  22   10   11 1
  23   11   12 2
  24   11   13 am
  25   13   23 1
  26   13   39 1
  27   14   40 1
  28   14   41 1
  29   14   42 1
  30   15   16 ar
  31   15   20 ar
  32   15   43 1
  33   16   17 ar
  34   17   18 ar
  35   17   44 1
  36   18   19 ar
  37   18   45 1
  38   19   20 ar
  39   19   21 1
  40   22   26 2
  41   22   27 am
  42   22   23 1
  43   23   24 1
  44   23   46 1
  45   24   25 1
  46   24   29 1
  47   24   30 1
  48   25   47 1
  49   25   48 1
  50   25   49 1
  51   27   28 1
  52   27   50 1
  53   28   51 1
  54   28   52 1
  55   28   53 1
  56   29   54 1
  57   29   55 1
  58   29   56 1
  59   30   57 1
  60   30   58 1
  61   30   59 1

#	End of record

