#	Name: ASD01028051
#	Creating user name:	WinNT
#	Creation time:	15. 06. 2019 18:56

#	Modifying user name:	WinNT
#	Modification time:	15. 06. 2019 18:56

#	Program:	/corina/corina34_cracker 3.40 0067  02.08.2006

@<TRIPOS>MOLECULE
ASD01028051
  61   65    0    0    0
SMALL
NO_CHARGES


@<TRIPOS>ATOM
   1 C1            -0.0186     1.5229     0.0104 C.3     
   2 C2             0.0021    -0.0041     0.0020 C.3     
   3 C3             1.4144     2.0598    -0.0004 C.3     
   4 N4             3.2063     3.4327    -3.0580 N.3     
   5 N5             0.7505     1.1501    -4.6691 N.pl3   
   6 C6             1.6661     1.6904    -5.6046 C.ar    
   7 C7             2.3196     2.8631    -5.2489 C.ar    
   8 C8             2.0191     3.5052    -3.9166 C.3     
   9 C9             1.9239     1.0892    -6.8257 C.ar    
  10 C10            2.8526     1.6657    -7.6869 C.ar    
  11 C11            3.5164     2.8290    -7.3191 C.ar    
  12 C12            3.2428     3.4263    -6.1022 C.ar    
  13 C13           -1.2908    -0.9907    -1.7264 C.ar    
  14 C14           -0.5928    -0.2985    -2.6762 C.ar    
  15 C15           -0.6057    -0.7371    -4.0046 C.ar    
  16 C16            0.1119    -0.0465    -5.0164 C.ar    
  17 N17            0.1278    -0.5528    -6.2323 N.ar    
  18 O18            1.4263    -0.0376    -7.4088 O.3     
  19 C19            2.0053    -0.1482    -8.7127 C.3     
  20 O20            2.9429     0.9267    -8.8275 O.3     
  21 C21           -2.0264    -2.1290    -2.0730 C.ar    
  22 C22           -2.0686    -2.5756    -3.3782 C.ar    
  23 C23           -1.3365    -1.8960    -4.3606 C.ar    
  24 N24           -1.2772    -2.3134    -5.6351 N.ar    
  25 C25           -0.5523    -1.6588    -6.5120 C.ar    
  26 O26           -2.7090    -2.8039    -1.1118 O.3     
  27 C27            2.9805     2.6126    -1.8650 C.3     
  28 O28           -1.2483    -0.5330    -0.4446 O.3     
  29 C29            1.6311     2.9465    -1.2288 C.3     
  30 C30           -3.4419    -3.9585    -1.5260 C.3     
  31 C31           -4.1400    -4.5810    -0.3152 C.3     
  32 O32           -5.1204    -3.6717     0.1889 O.3     
  33 C33           -5.8343    -4.1589     1.3270 C.3     
  34 H34           -0.5473     1.8831    -0.8721 H       
  35 H35           -0.5303     1.8736     0.9067 H       
  36 H36            0.7939    -0.3473    -0.6638 H       
  37 H37            0.2030    -0.3646     1.0109 H       
  38 H38            1.5887     2.6442     0.9030 H       
  39 H39            2.1136     1.2241    -0.0295 H       
  40 H40            4.0076     3.1047    -3.5760 H       
  41 H41            0.5734     1.5904    -3.8231 H       
  42 H42            1.1926     2.9796    -3.4384 H       
  43 H43            1.7451     4.5489    -4.0701 H       
  44 H44            4.2467     3.2670    -7.9834 H       
  45 H45            3.7534     4.3353    -5.8206 H       
  46 H46           -0.0337     0.5839    -2.4022 H       
  47 H47            2.5176    -1.1048    -8.8152 H       
  48 H48            1.2321    -0.0539    -9.4752 H       
  49 H49           -2.6599    -3.4407    -3.6397 H       
  50 H50           -0.5069    -2.0417    -7.5209 H       
  51 H51            2.9946     1.5593    -2.1452 H       
  52 H52            3.7748     2.8023    -1.1430 H       
  53 H53            0.8346     2.7680    -1.9511 H       
  54 H54            1.6207     3.9940    -0.9274 H       
  55 H55           -4.1878    -3.6692    -2.2664 H       
  56 H56           -2.7578    -4.6852    -1.9643 H       
  57 H57           -4.6256    -5.5101    -0.6137 H       
  58 H58           -3.4040    -4.7889     0.4614 H       
  59 H59           -6.5589    -3.4109     1.6488 H       
  60 H60           -6.3550    -5.0792     1.0626 H       
  61 H61           -5.1333    -4.3580     2.1376 H       
@<TRIPOS>BOND
   1    1    2 1
   2    1    3 1
   3    1   34 1
   4    1   35 1
   5    2   28 1
   6    2   36 1
   7    2   37 1
   8    3   29 1
   9    3   38 1
  10    3   39 1
  11    4   27 1
  12    4    8 1
  13    4   40 1
  14    5    6 1
  15    5   16 1
  16    5   41 1
  17    6    7 ar
  18    6    9 ar
  19    7    8 1
  20    7   12 ar
  21    8   42 1
  22    8   43 1
  23    9   10 ar
  24    9   18 1
  25   10   11 ar
  26   10   20 1
  27   11   12 ar
  28   11   44 1
  29   12   45 1
  30   13   14 ar
  31   13   21 ar
  32   13   28 1
  33   14   15 ar
  34   14   46 1
  35   15   16 ar
  36   15   23 ar
  37   16   17 ar
  38   17   25 ar
  39   18   19 1
  40   19   20 1
  41   19   47 1
  42   19   48 1
  43   21   22 ar
  44   21   26 1
  45   22   23 ar
  46   22   49 1
  47   23   24 ar
  48   24   25 ar
  49   25   50 1
  50   26   30 1
  51   27   29 1
  52   27   51 1
  53   27   52 1
  54   29   53 1
  55   29   54 1
  56   30   31 1
  57   30   55 1
  58   30   56 1
  59   31   32 1
  60   31   57 1
  61   31   58 1
  62   32   33 1
  63   33   59 1
  64   33   60 1
  65   33   61 1

#	End of record

