#	Name: ASD01148528
#	Creating user name:	WinNT
#	Creation time:	15. 06. 2019 19:02

#	Modifying user name:	WinNT
#	Modification time:	15. 06. 2019 19:02

#	Program:	/corina/corina34_cracker 3.40 0067  02.08.2006

@<TRIPOS>MOLECULE
ASD01148528
  64   68    0    0    0
SMALL
NO_CHARGES


@<TRIPOS>ATOM
   1 C1             0.0553     0.5123    -0.5861 C.ar    
   2 C2             0.3529    -0.8371    -0.6152 C.ar    
   3 C3             1.6620    -1.2594    -0.4759 C.ar    
   4 C4             2.6731    -0.3322    -0.3079 C.ar    
   5 C5             2.3755     1.0177    -0.2797 C.ar    
   6 C6             1.0667     1.4398    -0.4176 C.ar    
   7 C7             3.4778     2.0286    -0.0956 C.3     
   8 O8             4.7116     1.5581    -0.6752 O.3     
   9 C9             3.2043     3.3039    -0.9281 C.3     
  10 C10            3.9612     3.0276    -2.2133 C.2     
  11 N11            4.7749     2.0464    -2.0006 N.2     
  12 C12            3.7964     3.7523    -3.4849 C.ar    
  13 C13            4.5937     3.3809    -4.6513 C.ar    
  14 C14            2.8784     4.7888    -3.5843 C.ar    
  15 C15            2.7027     5.4861    -4.7662 C.ar    
  16 C16            3.4370     5.1793    -5.9040 C.ar    
  17 C17            4.4143     4.0940    -5.8602 C.ar    
  18 C18            3.2278     5.9390    -7.1488 C.2     
  19 O19            2.7153     5.4006    -8.1107 O.2     
  20 N20            3.6046     7.2310    -7.2211 N.am    
  21 C21            5.1766     3.7495    -6.9833 C.ar    
  22 C22            5.5275     2.3382    -4.5982 C.ar    
  23 C23            3.6631     2.3691     1.3844 C.3     
  24 F24            3.9780     1.2057     2.0948 F       
  25 F25            4.7018     3.2959     1.5233 F       
  26 F26            2.4787     2.9171     1.8886 F       
  27 C27            3.4838     7.9595    -8.4864 C.3     
  28 C28            2.1279     8.6127    -8.5625 C.ar    
  29 N29            1.0956     7.9216    -9.0044 N.ar    
  30 C30            4.0924     7.8528    -6.1294 C.2     
  31 C31           -0.1092     8.4516    -9.0883 C.ar    
  32 C32           -0.3324     9.7625    -8.7126 C.ar    
  33 C33            0.7293    10.5210    -8.2428 C.ar    
  34 C34            1.9796     9.9277    -8.1631 C.ar    
  35 O35            4.1094     7.2777    -5.0596 O.2     
  36 O36            4.5608     9.1111    -6.2245 O.3     
  37 C37            5.0710     9.7183    -5.0082 C.3     
  38 C38            6.2503     2.0243    -5.7107 C.ar    
  39 C39            6.0773     2.7294    -6.8987 C.ar    
  40 C40            1.9864    -2.7308    -0.5066 C.3     
  41 F41            0.8086    -3.4644    -0.6851 F       
  42 F42            2.8638    -2.9929    -1.5642 F       
  43 F43            2.5879    -3.1010     0.7010 F       
  44 H44           -0.9668     0.8424    -0.6994 H       
  45 H45           -0.4372    -1.5616    -0.7464 H       
  46 H46            3.6956    -0.6621    -0.1984 H       
  47 H47            0.8341     2.4942    -0.3952 H       
  48 H48            2.1379     3.4169    -1.1237 H       
  49 H49            3.6024     4.1861    -0.4266 H       
  50 H50            2.2883     5.0564    -2.7203 H       
  51 H51            1.9783     6.2862    -4.8047 H       
  52 H52            5.0515     4.2883    -7.9109 H       
  53 H53            5.6741     1.7864    -3.6814 H       
  54 H54            4.2589     8.7240    -8.5409 H       
  55 H55            3.5997     7.2647    -9.3182 H       
  56 H56           -0.9307     7.8543    -9.4553 H       
  57 H57           -1.3211    10.1911    -8.7843 H       
  58 H58            0.5846    11.5482    -7.9424 H       
  59 H59            2.8289    10.4884    -7.8015 H       
  60 H60            5.9017     9.1247    -4.6266 H       
  61 H61            5.4160    10.7295    -5.2240 H       
  62 H62            4.2783     9.7566    -4.2610 H       
  63 H63            6.9700     1.2202    -5.6688 H       
  64 H64            6.6644     2.4642    -7.7656 H       
@<TRIPOS>BOND
   1    1    2 ar
   2    1    6 ar
   3    1   44 1
   4    2    3 ar
   5    2   45 1
   6    3    4 ar
   7    3   40 1
   8    4    5 ar
   9    4   46 1
  10    5    6 ar
  11    5    7 1
  12    6   47 1
  13    7    8 1
  14    7    9 1
  15    7   23 1
  16    8   11 1
  17    9   10 1
  18    9   48 1
  19    9   49 1
  20   10   11 2
  21   10   12 1
  22   12   13 ar
  23   12   14 ar
  24   13   22 ar
  25   13   17 ar
  26   14   15 ar
  27   14   50 1
  28   15   16 ar
  29   15   51 1
  30   16   17 ar
  31   16   18 1
  32   17   21 ar
  33   18   19 2
  34   18   20 am
  35   20   27 1
  36   20   30 am
  37   21   39 ar
  38   21   52 1
  39   22   38 ar
  40   22   53 1
  41   23   24 1
  42   23   25 1
  43   23   26 1
  44   27   28 1
  45   27   54 1
  46   27   55 1
  47   28   29 ar
  48   28   34 ar
  49   29   31 ar
  50   30   35 2
  51   30   36 1
  52   31   32 ar
  53   31   56 1
  54   32   33 ar
  55   32   57 1
  56   33   34 ar
  57   33   58 1
  58   34   59 1
  59   36   37 1
  60   37   60 1
  61   37   61 1
  62   37   62 1
  63   38   39 ar
  64   38   63 1
  65   39   64 1
  66   40   41 1
  67   40   42 1
  68   40   43 1

#	End of record

