#	Name: ASD04880981
#	Creating user name:	WinNT
#	Creation time:	15. 06. 2019 20:53

#	Modifying user name:	WinNT
#	Modification time:	15. 06. 2019 20:53

#	Program:	/corina/corina34_cracker 3.40 0067  02.08.2006

@<TRIPOS>MOLECULE
ASD04880981
  86   91    0    0    0
SMALL
NO_CHARGES


@<TRIPOS>ATOM
   1 S1             0.2337     3.1140     1.4103 S.o2    
   2 O2            -0.2512     2.2477     2.4269 O.2     
   3 N3             1.3774     2.2152     0.6189 N.am    
   4 C4             2.4184     1.6159     1.3389 C.ar    
   5 C5             3.6481     2.2681     1.4640 C.ar    
   6 C6             4.6822     1.6746     2.1782 C.ar    
   7 C7             4.4993     0.4419     2.7652 C.ar    
   8 C8             3.2723    -0.2157     2.6441 C.ar    
   9 C9             2.2287     0.3817     1.9310 C.ar    
  10 C10            3.0765    -1.5359     3.2728 C.2     
  11 O11            2.0084    -2.1074     3.1668 O.2     
  12 N12            4.0815    -2.1085     3.9646 N.am    
  13 C13            3.8871    -3.4195     4.5889 C.3     
  14 C14            5.1719    -3.8383     5.3063 C.3     
  15 N15            3.8379     3.5149     0.8715 N.3     
  16 C16            3.8039     3.4122    -0.5941 C.3     
  17 C17            3.9359     4.8097    -1.2040 C.3     
  18 N18            5.1924     5.4224    -0.7508 N.3     
  19 C19            5.2263     5.5252     0.7148 C.3     
  20 C20            5.0944     4.1277     1.3247 C.3     
  21 C21            5.3826     6.6722    -1.3447 C.ar    
  22 C22            5.6056     6.7662    -2.7124 C.ar    
  23 C23            5.7928     8.0037    -3.2966 C.ar    
  24 C24            5.7588     9.1481    -2.5214 C.ar    
  25 C25            5.5370     9.0582    -1.1592 C.ar    
  26 C26            5.3434     7.8246    -0.5697 C.ar    
  27 C27            5.6438     5.5193    -3.5579 C.3     
  28 C28            4.9689    -5.2075     5.9583 C.3     
  29 N29            6.1991    -5.6085     6.6453 N.am    
  30 C30            6.5052    -5.2952     8.0460 C.3     
  31 C31            8.0269    -5.5156     8.1946 C.3     
  32 C32            8.3089    -6.5376     7.0690 C.3     
  33 C33            7.1901    -6.3155     6.0752 C.2     
  34 O34            7.1886    -6.7150     4.9301 O.2     
  35 O35           -0.6219     3.5812     0.3763 O.2     
  36 C36            1.1638     4.4911     2.1377 C.3     
  37 C37            0.2203     5.3909     2.8934 C.ar    
  38 C38           -0.3880     6.4297     2.2591 C.ar    
  39 C39           -1.2643     7.2738     2.9386 C.ar    
  40 C40           -1.5361     7.0821     4.2587 C.ar    
  41 C41           -0.9263     6.0198     4.9457 C.ar    
  42 C42           -0.0393     5.1567     4.2553 C.ar    
  43 N43            0.5392     4.1410     4.9033 N.ar    
  44 C44            0.3001     3.9181     6.1730 C.ar    
  45 C45           -0.5654     4.7244     6.9085 C.ar    
  46 C46           -1.1809     5.7872     6.3101 C.ar    
  47 H47            1.3264     2.1038    -0.3433 H       
  48 H48            5.6315     2.1809     2.2728 H       
  49 H49            5.3050    -0.0167     3.3193 H       
  50 H50            1.2778    -0.1220     1.8394 H       
  51 H51            4.9335    -1.6526     4.0491 H       
  52 H52            3.0711    -3.3615     5.3093 H       
  53 H53            3.6430    -4.1546     3.8219 H       
  54 H54            5.9879    -3.8963     4.5860 H       
  55 H55            5.4159    -3.1032     6.0733 H       
  56 H56            4.6300     2.7875    -0.9340 H       
  57 H57            2.8590     2.9672    -0.9057 H       
  58 H58            3.9401     4.7330    -2.2913 H       
  59 H59            3.0952     5.4262    -0.8858 H       
  60 H60            6.1713     5.9702     1.0264 H       
  61 H61            4.4003     6.1498     1.0547 H       
  62 H62            5.0901     4.2043     2.4120 H       
  63 H63            5.9351     3.5112     1.0065 H       
  64 H64            5.9663     8.0775    -4.3600 H       
  65 H65            5.9062    10.1145    -2.9806 H       
  66 H66            5.5114     9.9540    -0.5566 H       
  67 H67            5.1658     7.7554     0.4934 H       
  68 H68            4.6565     5.3381    -3.9828 H       
  69 H69            6.3676     5.6481    -4.3627 H       
  70 H70            5.9349     4.6700    -2.9399 H       
  71 H71            4.1529    -5.1494     6.6787 H       
  72 H72            4.7248    -5.9425     5.1914 H       
  73 H73            6.2511    -4.2581     8.2648 H       
  74 H74            5.9603    -5.9661     8.7103 H       
  75 H75            8.5738    -4.5880     8.0252 H       
  76 H76            8.2668    -5.9352     9.1716 H       
  77 H77            9.2769    -6.3403     6.6083 H       
  78 H78            8.2712    -7.5547     7.4591 H       
  79 H79            1.9178     4.0997     2.8206 H       
  80 H80            1.6512     5.0591     1.3453 H       
  81 H81           -0.1881     6.6031     1.2120 H       
  82 H82           -1.7337     8.0909     2.4111 H       
  83 H83           -2.2164     7.7434     4.7748 H       
  84 H84            0.7869     3.0870     6.6616 H       
  85 H85           -0.7425     4.5152     7.9531 H       
  86 H86           -1.8549     6.4229     6.8651 H       
@<TRIPOS>BOND
   1    1    2 2
   2    1    3 am
   3    1   35 2
   4    1   36 1
   5    3    4 1
   6    3   47 1
   7    4    5 ar
   8    4    9 ar
   9    5    6 ar
  10    5   15 1
  11    6    7 ar
  12    6   48 1
  13    7    8 ar
  14    7   49 1
  15    8    9 ar
  16    8   10 1
  17    9   50 1
  18   10   11 2
  19   10   12 am
  20   12   13 1
  21   12   51 1
  22   13   14 1
  23   13   52 1
  24   13   53 1
  25   14   28 1
  26   14   54 1
  27   14   55 1
  28   15   16 1
  29   15   20 1
  30   16   17 1
  31   16   56 1
  32   16   57 1
  33   17   18 1
  34   17   58 1
  35   17   59 1
  36   18   19 1
  37   18   21 1
  38   19   20 1
  39   19   60 1
  40   19   61 1
  41   20   62 1
  42   20   63 1
  43   21   22 ar
  44   21   26 ar
  45   22   23 ar
  46   22   27 1
  47   23   24 ar
  48   23   64 1
  49   24   25 ar
  50   24   65 1
  51   25   26 ar
  52   25   66 1
  53   26   67 1
  54   27   68 1
  55   27   69 1
  56   27   70 1
  57   28   29 1
  58   28   71 1
  59   28   72 1
  60   29   30 1
  61   29   33 am
  62   30   31 1
  63   30   73 1
  64   30   74 1
  65   31   32 1
  66   31   75 1
  67   31   76 1
  68   32   33 1
  69   32   77 1
  70   32   78 1
  71   33   34 2
  72   36   37 1
  73   36   79 1
  74   36   80 1
  75   37   42 ar
  76   37   38 ar
  77   38   39 ar
  78   38   81 1
  79   39   40 ar
  80   39   82 1
  81   40   41 ar
  82   40   83 1
  83   41   42 ar
  84   41   46 ar
  85   42   43 ar
  86   43   44 ar
  87   44   45 ar
  88   44   84 1
  89   45   46 ar
  90   45   85 1
  91   46   86 1

#	End of record

