#	Name: ASD05503065
#	Creating user name:	WinNT
#	Creation time:	15. 06. 2019 21:01

#	Modifying user name:	WinNT
#	Modification time:	15. 06. 2019 21:01

#	Program:	/corina/corina34_cracker 3.40 0067  02.08.2006

@<TRIPOS>MOLECULE
ASD05503065
  40   41    0    0    0
SMALL
NO_CHARGES


@<TRIPOS>ATOM
   1 C1            -0.0106     1.3814     0.0192 C.ar    
   2 C2             0.0042    -0.0076     0.0078 C.ar    
   3 C3             1.2139    -0.6870    -0.0055 C.ar    
   4 C4             2.4056     0.0239    -0.0073 C.ar    
   5 C5             2.3838     1.4136     0.0042 C.ar    
   6 C6             1.1777     2.0867     0.0174 C.ar    
   7 N7             3.6255    -0.6561    -0.0203 N.pl3   
   8 C8             4.8831     0.0953    -0.0221 C.3     
   9 C9             6.0431    -0.8666    -0.0369 C.ar    
  10 C10            6.7656    -1.0602    -1.1989 C.ar    
  11 C11            7.8298    -1.9427    -1.2126 C.ar    
  12 C12            8.1716    -2.6316    -0.0641 C.ar    
  13 C13            7.4495    -2.4386     1.0988 C.ar    
  14 C14            6.3884    -1.5517     1.1144 C.ar    
  15 Br15           5.4001    -1.2872     2.7047 Br      
  16 N16           -1.1996    -0.7208     0.0101 N.am    
  17 C17           -1.2953    -1.8835    -0.6647 C.2     
  18 C18           -2.5505    -2.7115    -0.5650 C.3     
  19 O19           -0.3712    -2.2635    -1.3523 O.2     
  20 C20           -2.3999    -3.9711    -1.4203 C.3     
  21 C21           -3.6742    -4.8118    -1.3190 C.3     
  22 H22           -0.9520     1.9107     0.0251 H       
  23 H23            1.2280    -1.7669    -0.0141 H       
  24 H24            3.3108     1.9677     0.0028 H       
  25 H25            1.1633     3.1665     0.0259 H       
  26 H26            3.6400    -1.6260    -0.0280 H       
  27 H27            4.9259     0.7298    -0.9075 H       
  28 H28            4.9369     0.7158     0.8724 H       
  29 H29            6.4986    -0.5224    -2.0966 H       
  30 H30            8.3940    -2.0940    -2.1210 H       
  31 H31            9.0028    -3.3212    -0.0753 H       
  32 H32            7.7164    -2.9772     1.9960 H       
  33 H33           -1.9653    -0.3784     0.4974 H       
  34 H34           -2.7167    -2.9957     0.4741 H       
  35 H35           -3.3995    -2.1289    -0.9226 H       
  36 H36           -2.2337    -3.6870    -2.4594 H       
  37 H37           -1.5509    -4.5538    -1.0627 H       
  38 H38           -3.8404    -5.0959    -0.2799 H       
  39 H39           -4.5232    -4.2291    -1.6766 H       
  40 H40           -3.5669    -5.7091    -1.9284 H       
@<TRIPOS>BOND
   1    1    2 ar
   2    1    6 ar
   3    1   22 1
   4    2    3 ar
   5    2   16 1
   6    3    4 ar
   7    3   23 1
   8    4    5 ar
   9    4    7 1
  10    5    6 ar
  11    5   24 1
  12    6   25 1
  13    7    8 1
  14    7   26 1
  15    8    9 1
  16    8   27 1
  17    8   28 1
  18    9   10 ar
  19    9   14 ar
  20   10   11 ar
  21   10   29 1
  22   11   12 ar
  23   11   30 1
  24   12   13 ar
  25   12   31 1
  26   13   14 ar
  27   13   32 1
  28   14   15 1
  29   16   17 am
  30   16   33 1
  31   17   18 1
  32   17   19 2
  33   18   20 1
  34   18   34 1
  35   18   35 1
  36   20   21 1
  37   20   36 1
  38   20   37 1
  39   21   38 1
  40   21   39 1
  41   21   40 1

#	End of record

