#	Name: ASD01812197
#	Creating user name:	WinNT
#	Creation time:	15. 06. 2019 19:28

#	Modifying user name:	WinNT
#	Modification time:	15. 06. 2019 19:28

#	Program:	/corina/corina34_cracker 3.40 0067  02.08.2006

@<TRIPOS>MOLECULE
ASD01812197
  70   75    0    0    0
SMALL
NO_CHARGES


@<TRIPOS>ATOM
   1 C1            -0.0168     1.3890     0.0097 C.ar    
   2 C2             0.0021    -0.0041     0.0020 C.ar    
   3 C3             1.1787    -0.6895    -0.0125 C.ar    
   4 C4             2.3941     0.0134    -0.0203 C.ar    
   5 C5             2.3756     1.4326    -0.0130 C.ar    
   6 C6             1.1407     2.1050     0.0025 C.ar    
   7 C7             3.6272    -0.6637    -0.0358 C.ar    
   8 C8             4.7900     0.0351    -0.0436 C.ar    
   9 C9             4.7882     1.4439    -0.0361 C.ar    
  10 C10            3.5864     2.1337    -0.0214 C.ar    
  11 C11            3.6565    -2.1704    -0.0431 C.3     
  12 C12            5.8880     2.4286    -0.0415 C.2     
  13 N13            5.3952     3.6790    -0.0301 N.am    
  14 C14            3.9298     3.6021    -0.0168 C.3     
  15 O15            7.0708     2.1485    -0.0540 O.2     
  16 C16            6.1876     4.9112    -0.0312 C.3     
  17 C17            7.0575     4.9570    -1.2890 C.3     
  18 C18            7.8851     6.2438    -1.2901 C.3     
  19 C19            8.7800     6.2758    -0.0495 C.3     
  20 C20            7.9100     6.2300     1.2082 C.3     
  21 C21            7.0825     4.9431     1.2094 C.3     
  22 N22            3.4120    -2.6584    -1.4069 N.3     
  23 C23            3.6659    -4.1026    -1.5030 C.3     
  24 C24            3.3244    -4.5851    -2.9147 C.3     
  25 N25            4.1345    -3.8448    -3.8921 N.3     
  26 C26            3.8806    -2.4005    -3.7960 C.3     
  27 C27            4.2222    -1.9180    -2.3843 C.3     
  28 C28            3.9020    -4.3087    -5.1888 C.ar    
  29 C29            4.5728    -3.7379    -6.2630 C.ar    
  30 C30            4.3409    -4.1994    -7.5439 C.ar    
  31 C31            3.4422    -5.2284    -7.7577 C.ar    
  32 C32            2.7728    -5.7988    -6.6906 C.ar    
  33 C33            3.0038    -5.3457    -5.4066 C.ar    
  34 O34            6.2217     4.9271    -2.4476 O.3     
  35 C35            3.3560     4.2807    -1.2622 C.3     
  36 H36           -0.9637     1.9083     0.0170 H       
  37 H37           -0.9306    -0.5486     0.0080 H       
  38 H38            1.1770    -1.7695    -0.0175 H       
  39 H39            1.1108     3.1846     0.0079 H       
  40 H40            5.7302    -0.4960    -0.0555 H       
  41 H41            4.6326    -2.5165     0.2971 H       
  42 H42            2.8831    -2.5521     0.6235 H       
  43 H43            3.5378     4.0769     0.8827 H       
  44 H44            5.5198     5.7726    -0.0198 H       
  45 H45            7.7253     4.0956    -1.3004 H       
  46 H46            8.5048     6.2765    -2.1862 H       
  47 H47            7.2173     7.1053    -1.2787 H       
  48 H48            9.4478     5.4144    -0.0610 H       
  49 H49            9.3695     7.1926    -0.0504 H       
  50 H50            8.5476     6.2528     2.0920 H       
  51 H51            7.2422     7.0914     1.2196 H       
  52 H52            6.4627     4.9105     2.1054 H       
  53 H53            7.7503     4.0817     1.1979 H       
  54 H54            4.7172    -4.3017    -1.2951 H       
  55 H55            3.0454    -4.6299    -0.7784 H       
  56 H56            3.5393    -5.6506    -2.9968 H       
  57 H57            2.2667    -4.4109    -3.1126 H       
  58 H58            4.5011    -1.8732    -4.5206 H       
  59 H59            2.8293    -2.2015    -4.0039 H       
  60 H60            4.0072    -0.8526    -2.3021 H       
  61 H61            5.2798    -2.0922    -2.1864 H       
  62 H62            5.2745    -2.9340    -6.0968 H       
  63 H63            4.8618    -3.7558    -8.3796 H       
  64 H64            3.2624    -5.5871    -8.7604 H       
  65 H65            2.0715    -6.6023    -6.8610 H       
  66 H66            2.4809    -5.7919    -4.5736 H       
  67 H67            6.7071     4.9535    -3.2836 H       
  68 H68            3.7321     3.7803    -2.1545 H       
  69 H69            2.2680     4.2176    -1.2416 H       
  70 H70            3.6590     5.3276    -1.2777 H       
@<TRIPOS>BOND
   1    1    2 ar
   2    1    6 ar
   3    1   36 1
   4    2    3 ar
   5    2   37 1
   6    3    4 ar
   7    3   38 1
   8    4    5 ar
   9    4    7 ar
  10    5    6 ar
  11    5   10 ar
  12    6   39 1
  13    7    8 ar
  14    7   11 1
  15    8    9 ar
  16    8   40 1
  17    9   10 ar
  18    9   12 1
  19   10   14 1
  20   11   22 1
  21   11   41 1
  22   11   42 1
  23   12   13 am
  24   12   15 2
  25   13   14 1
  26   13   16 1
  27   14   35 1
  28   14   43 1
  29   16   17 1
  30   16   21 1
  31   16   44 1
  32   17   18 1
  33   17   34 1
  34   17   45 1
  35   18   19 1
  36   18   46 1
  37   18   47 1
  38   19   20 1
  39   19   48 1
  40   19   49 1
  41   20   21 1
  42   20   50 1
  43   20   51 1
  44   21   52 1
  45   21   53 1
  46   22   23 1
  47   22   27 1
  48   23   24 1
  49   23   54 1
  50   23   55 1
  51   24   25 1
  52   24   56 1
  53   24   57 1
  54   25   26 1
  55   25   28 1
  56   26   27 1
  57   26   58 1
  58   26   59 1
  59   27   60 1
  60   27   61 1
  61   28   29 ar
  62   28   33 ar
  63   29   30 ar
  64   29   62 1
  65   30   31 ar
  66   30   63 1
  67   31   32 ar
  68   31   64 1
  69   32   33 ar
  70   32   65 1
  71   33   66 1
  72   34   67 1
  73   35   68 1
  74   35   69 1
  75   35   70 1

#	End of record

