#	Name: ASD01813298
#	Creating user name:	WinNT
#	Creation time:	15. 06. 2019 19:30

#	Modifying user name:	WinNT
#	Modification time:	15. 06. 2019 19:30

#	Program:	/corina/corina34_cracker 3.40 0067  02.08.2006

@<TRIPOS>MOLECULE
ASD01813298
  55   58    0    0    0
SMALL
NO_CHARGES


@<TRIPOS>ATOM
   1 C1             0.1536     1.0163    -0.2328 C.3     
   2 C2             0.1159    -0.4654     0.0397 C.ar    
   3 C3             0.0432    -1.3680    -1.0090 C.ar    
   4 N4             0.0097    -2.6634    -0.7842 N.ar    
   5 C5             0.0442    -3.1576     0.4470 C.ar    
   6 C6             0.1178    -2.3086     1.5490 C.ar    
   7 C7             0.1594    -0.9389     1.3419 C.ar    
   8 C8             0.2448     0.0143     2.5060 C.3     
   9 C9             1.6862     0.3790     2.7519 C.ar    
  10 C10            2.4888    -0.4558     3.5082 C.ar    
  11 C11            3.8096    -0.1266     3.7366 C.ar    
  12 C12            4.3340     1.0490     3.2036 C.ar    
  13 C13            3.5211     1.8863     2.4426 C.ar    
  14 C14            2.2032     1.5446     2.2158 C.ar    
  15 C15            5.7535     1.4084     3.4462 C.2     
  16 C16            6.4081     2.5629     2.9747 C.2     
  17 C17            7.6865     2.5206     3.4091 C.2     
  18 N18            7.8452     1.3885     4.1280 N.pl3   
  19 C19            9.0811     0.9516     4.7821 C.3     
  20 N20            6.6213     0.7074     4.1447 N.2     
  21 C21            0.0037    -4.6246     0.6512 C.2     
  22 O22            0.0351    -5.0825     1.7764 O.2     
  23 N23           -0.0679    -5.4511    -0.4109 N.am    
  24 C24           -0.1079    -6.9016    -0.2090 C.3     
  25 H25            0.4967    -7.1747     0.6558 H       
  26 C26           -1.5645    -7.3665    -0.0035 C.3     
  27 C27           -2.0200    -7.8223    -1.4119 C.3     
  28 C28           -0.7488    -8.5014    -1.9792 C.3     
  29 C29            0.4119    -7.6231    -1.4647 C.3     
  30 H30            0.6940    -6.8941    -2.2244 H       
  31 O31            1.5347    -8.4412    -1.1297 O.3     
  32 H32            1.1891     1.3560    -0.2516 H       
  33 H33           -0.3134     1.2204    -1.1963 H       
  34 H34           -0.3878     1.5440     0.5524 H       
  35 H35            0.0133    -1.0028    -2.0249 H       
  36 H36            0.1455    -2.7122     2.5504 H       
  37 H37           -0.3246     0.9159     2.2800 H       
  38 H38           -0.1665    -0.4616     3.3962 H       
  39 H39            2.0812    -1.3667     3.9212 H       
  40 H40            4.4354    -0.7790     4.3275 H       
  41 H41            3.9225     2.7989     2.0274 H       
  42 H42            1.5734     2.1905     1.6220 H       
  43 H43            5.9666     3.3432     2.3725 H       
  44 H44            8.4478     3.2618     3.2156 H       
  45 H45            9.1140     1.3466     5.7975 H       
  46 H46            9.1095    -0.1375     4.8149 H       
  47 H47            9.9394     1.3207     4.2207 H       
  48 H48           -0.0929    -5.0856    -1.3091 H       
  49 H49           -1.6036    -8.1996     0.6983 H       
  50 H50           -2.1825    -6.5405     0.3486 H       
  51 H51           -2.8402    -8.5366    -1.3403 H       
  52 H52           -2.3050    -6.9651    -2.0220 H       
  53 H53           -0.6561    -9.5178    -1.5965 H       
  54 H54           -0.7715    -8.5037    -3.0690 H       
  55 H55            1.9083    -8.9229    -1.8804 H       
@<TRIPOS>BOND
   1    1    2 1
   2    1   32 1
   3    1   33 1
   4    1   34 1
   5    2    7 ar
   6    2    3 ar
   7    3    4 ar
   8    3   35 1
   9    4    5 ar
  10    5    6 ar
  11    5   21 1
  12    6    7 ar
  13    6   36 1
  14    7    8 1
  15    8    9 1
  16    8   37 1
  17    8   38 1
  18    9   14 ar
  19    9   10 ar
  20   10   11 ar
  21   10   39 1
  22   11   12 ar
  23   11   40 1
  24   12   13 ar
  25   12   15 1
  26   13   14 ar
  27   13   41 1
  28   14   42 1
  29   15   20 2
  30   15   16 1
  31   16   17 2
  32   16   43 1
  33   17   18 1
  34   17   44 1
  35   18   19 1
  36   18   20 1
  37   19   45 1
  38   19   46 1
  39   19   47 1
  40   21   22 2
  41   21   23 am
  42   23   24 1
  43   23   48 1
  44   24   25 1
  45   24   29 1
  46   24   26 1
  47   26   27 1
  48   26   49 1
  49   26   50 1
  50   27   28 1
  51   27   51 1
  52   27   52 1
  53   28   29 1
  54   28   53 1
  55   28   54 1
  56   29   30 1
  57   29   31 1
  58   31   55 1

#	End of record

