#	Name: ASD03091837
#	Creating user name:	WinNT
#	Creation time:	15. 06. 2019 20:31

#	Modifying user name:	WinNT
#	Modification time:	15. 06. 2019 20:31

#	Program:	/corina/corina34_cracker 3.40 0067  02.08.2006

@<TRIPOS>MOLECULE
ASD03091837
  46   50    0    0    0
SMALL
NO_CHARGES


@<TRIPOS>ATOM
   1 C1            -0.0170     1.4049     0.0098 C.ar    
   2 C2             0.0021    -0.0041     0.0020 C.ar    
   3 C3             1.2240    -0.6761    -0.0132 C.ar    
   4 C4             2.3900     0.0881    -0.0203 C.ar    
   5 C5             2.2902     1.4819    -0.0118 C.ar    
   6 N6             1.1226     2.0850     0.0025 N.ar    
   7 N7            -1.3367     1.7873     0.0299 N.pl3   
   8 C8            -1.3985    -0.4319     0.0131 C.2     
   9 C9            -2.1456     0.6827     0.0352 C.2     
  10 C10            3.7192    -0.5698    -0.0360 C.ar    
  11 C11            4.8797     0.2019    -0.0429 C.ar    
  12 N12            3.8052    -1.8971    -0.0380 N.ar    
  13 N13            6.0620    -0.3857    -0.0570 N.ar    
  14 C14            6.1454    -1.7090    -0.0645 C.ar    
  15 C15            4.9881    -2.4806    -0.0520 C.ar    
  16 O16            7.3612    -2.3112    -0.0794 O.3     
  17 C17           10.9343    -1.2992     0.4775 C.3     
  18 C18            9.6698    -2.1613     0.6211 C.3     
  19 C19            8.5077    -1.4582    -0.0862 C.3     
  20 C20            8.8983    -1.1416    -1.5326 C.3     
  21 C21           10.2151    -0.3486    -1.5302 C.3     
  22 C22           10.0831     0.7840    -0.4861 C.3     
  23 C23           10.5584     0.1558     0.8406 C.3     
  24 N24           11.2656    -1.2405    -0.9711 N.3     
  25 C25           12.6044    -0.6738    -1.1824 C.3     
  26 H26            1.2657    -1.7552    -0.0191 H       
  27 H27            3.1920     2.0762    -0.0172 H       
  28 H28           -1.6494     2.7055     0.0391 H       
  29 H29           -1.7606    -1.4494     0.0111 H       
  30 H30           -3.2253     0.7051     0.0505 H       
  31 H31            4.8119     1.2798    -0.0372 H       
  32 H32            5.0581    -3.5584    -0.0537 H       
  33 H33           11.7586    -1.6754     1.0835 H       
  34 H34            9.8390    -3.1364     0.1643 H       
  35 H35            9.4319    -2.2873     1.6773 H       
  36 H36            8.2728    -0.5310     0.4364 H       
  37 H37            9.0328    -2.0708    -2.0863 H       
  38 H38            8.1144    -0.5460    -2.0005 H       
  39 H39           10.4676     0.0310    -2.5203 H       
  40 H40           10.7204     1.6258    -0.7570 H       
  41 H41            9.0446     1.1045    -0.4034 H       
  42 H42            9.7536     0.1676     1.5756 H       
  43 H43           11.4294     0.6888     1.2220 H       
  44 H44           13.3454    -1.2950    -0.6793 H       
  45 H45           12.8212    -0.6424    -2.2501 H       
  46 H46           12.6399     0.3364    -0.7745 H       
@<TRIPOS>BOND
   1    1    2 ar
   2    1    6 ar
   3    1    7 1
   4    2    3 ar
   5    2    8 1
   6    3    4 ar
   7    3   26 1
   8    4    5 ar
   9    4   10 1
  10    5    6 ar
  11    5   27 1
  12    7    9 1
  13    7   28 1
  14    8    9 2
  15    8   29 1
  16    9   30 1
  17   10   11 ar
  18   10   12 ar
  19   11   13 ar
  20   11   31 1
  21   12   15 ar
  22   13   14 ar
  23   14   15 ar
  24   14   16 1
  25   15   32 1
  26   16   19 1
  27   17   18 1
  28   17   23 1
  29   17   24 1
  30   17   33 1
  31   18   19 1
  32   18   34 1
  33   18   35 1
  34   19   20 1
  35   19   36 1
  36   20   21 1
  37   20   37 1
  38   20   38 1
  39   21   22 1
  40   21   24 1
  41   21   39 1
  42   22   23 1
  43   22   40 1
  44   22   41 1
  45   23   42 1
  46   23   43 1
  47   24   25 1
  48   25   44 1
  49   25   45 1
  50   25   46 1

#	End of record

