#	Name: ASD01813273
#	Creating user name:	WinNT
#	Creation time:	15. 06. 2019 19:30

#	Modifying user name:	WinNT
#	Modification time:	15. 06. 2019 19:30

#	Program:	/corina/corina34_cracker 3.40 0067  02.08.2006

@<TRIPOS>MOLECULE
ASD01813273
  56   60    0    0    0
SMALL
NO_CHARGES


@<TRIPOS>ATOM
   1 O1            -0.0173     1.4248     0.0099 O.3     
   2 C2             0.0021    -0.0041     0.0020 C.3     
   3 H3             0.5123    -0.3556    -0.8948 H       
   4 C4             0.7421    -0.5109     1.2415 C.3     
   5 C5             0.7628    -2.0407     1.2331 C.3     
   6 C6            -0.6726    -2.5703     1.2440 C.3     
   7 C7            -1.4126    -2.0635     0.0045 C.3     
   8 C8            -1.4333    -0.5336     0.0129 C.3     
   9 H9            -1.9435    -0.1821     0.9097 H       
  10 N10           -2.1419    -0.0483    -1.1740 N.am    
  11 C11           -3.4850     0.0621    -1.1588 C.2     
  12 O12           -4.1091    -0.2413    -0.1593 O.2     
  13 C13           -4.1956     0.5488    -2.3490 C.2     
  14 C14           -3.6389     0.9191    -3.5373 C.2     
  15 N15           -4.6110     1.3113    -4.3962 N.pl3   
  16 C16           -4.3786     1.7746    -5.7664 C.3     
  17 C17           -4.3002     3.2795    -5.7813 C.ar    
  18 C18           -5.4493     4.0276    -5.9631 C.ar    
  19 C19           -5.3832     5.4062    -5.9781 C.ar    
  20 C20           -4.1560     6.0440    -5.8092 C.ar    
  21 C21           -3.0017     5.2855    -5.6261 C.ar    
  22 C22           -3.0801     3.9077    -5.6076 C.ar    
  23 C23           -4.0787     7.5260    -5.8249 C.2     
  24 N24           -5.1144     8.3603    -5.9866 N.2     
  25 C25           -4.6955     9.5976    -5.9495 C.2     
  26 N26           -3.3637     9.5870    -5.7607 N.pl3   
  27 H27           -2.7812    10.3596    -5.6918 H       
  28 N28           -2.9830     8.2378    -5.6767 N.2     
  29 C29           -5.8504     1.2120    -3.7984 C.ar    
  30 C30           -7.1428     1.4844    -4.2357 C.ar    
  31 C31           -8.2124     1.2826    -3.3907 C.ar    
  32 C32           -8.0160     0.8090    -2.1020 C.ar    
  33 C33           -6.7420     0.5327    -1.6489 C.ar    
  34 F34           -6.5527     0.0714    -0.3933 F       
  35 C35           -5.6519     0.7270    -2.4962 C.ar    
  36 H36            0.8606     1.8301     0.0037 H       
  37 H37            1.7647    -0.1336     1.2338 H       
  38 H38            0.2319    -0.1594     2.1383 H       
  39 H39            1.2730    -2.3923     0.3363 H       
  40 H40            1.2900    -2.4018     2.1162 H       
  41 H41           -0.6578    -3.6602     1.2380 H       
  42 H42           -1.1828    -2.2188     2.1408 H       
  43 H43           -0.9024    -2.4150    -0.8923 H       
  44 H44           -2.4352    -2.4408     0.0122 H       
  45 H45           -1.6443     0.1935    -1.9708 H       
  46 H46           -2.5824     0.9023    -3.7605 H       
  47 H47           -3.4418     1.3583    -6.1368 H       
  48 H48           -5.1992     1.4472    -6.4047 H       
  49 H49           -6.4000     3.5321    -6.0939 H       
  50 H50           -6.2809     5.9893    -6.1207 H       
  51 H51           -2.0480     5.7749    -5.4947 H       
  52 H52           -2.1867     3.3188    -5.4613 H       
  53 H53           -5.3128    10.4778    -6.0527 H       
  54 H54           -7.3076     1.8543    -5.2369 H       
  55 H55           -9.2135     1.4957    -3.7353 H       
  56 H56           -8.8636     0.6561    -1.4503 H       
@<TRIPOS>BOND
   1    1    2 1
   2    1   36 1
   3    2    3 1
   4    2    8 1
   5    2    4 1
   6    4    5 1
   7    4   37 1
   8    4   38 1
   9    5    6 1
  10    5   39 1
  11    5   40 1
  12    6    7 1
  13    6   41 1
  14    6   42 1
  15    7    8 1
  16    7   43 1
  17    7   44 1
  18    8    9 1
  19    8   10 1
  20   10   11 am
  21   10   45 1
  22   11   12 2
  23   11   13 1
  24   13   35 1
  25   13   14 2
  26   14   15 1
  27   14   46 1
  28   15   16 1
  29   15   29 1
  30   16   17 1
  31   16   47 1
  32   16   48 1
  33   17   22 ar
  34   17   18 ar
  35   18   19 ar
  36   18   49 1
  37   19   20 ar
  38   19   50 1
  39   20   21 ar
  40   20   23 1
  41   21   22 ar
  42   21   51 1
  43   22   52 1
  44   23   28 2
  45   23   24 1
  46   24   25 2
  47   25   26 1
  48   25   53 1
  49   26   27 1
  50   26   28 1
  51   29   35 ar
  52   29   30 ar
  53   30   31 ar
  54   30   54 1
  55   31   32 ar
  56   31   55 1
  57   32   33 ar
  58   32   56 1
  59   33   34 1
  60   33   35 ar

#	End of record

