#	Name: ASD04560178
#	Creating user name:	WinNT
#	Creation time:	15. 06. 2019 20:49

#	Modifying user name:	WinNT
#	Modification time:	15. 06. 2019 20:49

#	Program:	/corina/corina34_cracker 3.40 0067  02.08.2006

@<TRIPOS>MOLECULE
ASD04560178
  40   42    0    0    0
SMALL
NO_CHARGES


@<TRIPOS>ATOM
   1 C1            -0.0157     1.3632    -0.0077 C.ar    
   2 C2             0.0032    -0.0046    -0.0223 C.ar    
   3 C3             1.2279    -0.6718    -0.0398 C.ar    
   4 N4             2.3710     0.0016    -0.0419 N.ar    
   5 C5             2.3971     1.3178    -0.0282 C.ar    
   6 C6             1.2088     2.0502    -0.0108 C.ar    
   7 C7             1.2392     3.5246     0.0045 C.2     
   8 O8             0.1988     4.1541     0.0196 O.2     
   9 N9             2.4200     4.1743     0.0019 N.am    
  10 C10            2.4505     5.5701    -0.0966 C.ar    
  11 C11            3.4269     6.2934     0.5757 C.ar    
  12 C12            1.5401     7.6106    -0.9674 C.ar    
  13 C13            1.5079     6.2333    -0.8712 C.ar    
  14 S14            1.2573    -2.4335    -0.0586 S.3     
  15 C15            3.4555     7.6706     0.4768 C.ar    
  16 C16            2.5114     8.3303    -0.2920 C.ar    
  17 F17            2.5411     9.6776    -0.3873 F       
  18 C18            3.0447    -2.7178    -0.0768 C.3     
  19 C19            3.3175    -4.1998    -0.0948 C.ar    
  20 C20            3.4325    -4.8669    -1.2987 C.ar    
  21 C21            3.6827    -6.2268    -1.3159 C.ar    
  22 C22            3.8184    -6.9221    -0.1288 C.ar    
  23 C23            3.7039    -6.2595     1.0782 C.ar    
  24 C24            3.4590    -4.8943     1.0981 C.ar    
  25 O25            3.3459    -4.2403     2.2840 O.3     
  26 H26           -0.9514     1.9025     0.0015 H       
  27 H27           -0.9215    -0.5626    -0.0200 H       
  28 H28            3.3452     1.8349    -0.0304 H       
  29 H29            3.2487     3.6745     0.0681 H       
  30 H30            4.1632     5.7793     1.1757 H       
  31 H31            0.8072     8.1268    -1.5697 H       
  32 H32            0.7504     5.6723    -1.3984 H       
  33 H33            4.2145     8.2335     0.9998 H       
  34 H34            3.4768    -2.2581    -0.9657 H       
  35 H35            3.4918    -2.2769     0.8141 H       
  36 H36            3.3265    -4.3260    -2.2275 H       
  37 H37            3.7719    -6.7467    -2.2583 H       
  38 H38            4.0139    -7.9842    -0.1448 H       
  39 H39            3.8096    -6.8032     2.0054 H       
  40 H40            4.1826    -3.8950     2.6241 H       
@<TRIPOS>BOND
   1    1    2 ar
   2    1    6 ar
   3    1   26 1
   4    2    3 ar
   5    2   27 1
   6    3    4 ar
   7    3   14 1
   8    4    5 ar
   9    5    6 ar
  10    5   28 1
  11    6    7 1
  12    7    8 2
  13    7    9 am
  14    9   10 1
  15    9   29 1
  16   10   11 ar
  17   10   13 ar
  18   11   15 ar
  19   11   30 1
  20   12   13 ar
  21   12   16 ar
  22   12   31 1
  23   13   32 1
  24   14   18 1
  25   15   16 ar
  26   15   33 1
  27   16   17 1
  28   18   19 1
  29   18   34 1
  30   18   35 1
  31   19   20 ar
  32   19   24 ar
  33   20   21 ar
  34   20   36 1
  35   21   22 ar
  36   21   37 1
  37   22   23 ar
  38   22   38 1
  39   23   24 ar
  40   23   39 1
  41   24   25 1
  42   25   40 1

#	End of record

