#	Name: ASD04930055
#	Creating user name:	WinNT
#	Creation time:	15. 06. 2019 20:56

#	Modifying user name:	WinNT
#	Modification time:	15. 06. 2019 20:56

#	Program:	/corina/corina34_cracker 3.40 0067  02.08.2006

@<TRIPOS>MOLECULE
ASD04930055
  73   74    0    0    0
SMALL
NO_CHARGES


@<TRIPOS>ATOM
   1 C1             2.6896     1.5473     2.2458 C.ar    
   2 C2             2.5646     0.1876     2.2739 C.ar    
   3 C3             2.2946    -0.5192     1.1102 C.ar    
   4 C4             2.1482     0.1370    -0.0924 C.ar    
   5 C5             2.2708     1.5231    -0.1461 C.ar    
   6 C6             2.5443     2.2348     1.0352 C.ar    
   7 C7             2.6747     3.6948     0.9858 C.2     
   8 N8             2.1249     2.1872    -1.3467 N.am    
   9 C9             2.2375     3.5234    -1.4334 C.2     
  10 C10            2.5200     4.3314    -0.2479 C.2     
  11 O11            2.9369     4.4045     2.1030 O.3     
  12 O12            2.1021     4.0690    -2.5141 O.2     
  13 C13            2.6407     5.7908    -0.3529 C.2     
  14 O14            1.6440     6.4756    -0.4876 O.2     
  15 N15            3.8555     6.3721    -0.3002 N.am    
  16 N16            3.9812     7.7522    -0.5053 N.am    
  17 C17            5.1961     8.3335    -0.4526 C.2     
  18 C18            5.3313     9.8181    -0.6732 C.3     
  19 O19            6.1805     7.6617    -0.2275 O.2     
  20 C20            6.8037    10.2184    -0.5608 C.3     
  21 C21            6.9410    11.7257    -0.7848 C.3     
  22 C22            8.4134    12.1260    -0.6724 C.3     
  23 C23            8.5507    13.6332    -0.8964 C.3     
  24 C24           10.0231    14.0336    -0.7839 C.3     
  25 C25           10.1604    15.5408    -1.0080 C.3     
  26 C26           11.6328    15.9411    -0.8955 C.3     
  27 C27           11.7701    17.4484    -1.1195 C.3     
  28 C28           13.2425    17.8487    -1.0071 C.3     
  29 C29           13.3798    19.3560    -1.2311 C.3     
  30 C30            1.8403     1.4152    -2.5588 C.3     
  31 C31            0.3491     1.2832    -2.7318 C.2     
  32 C32           -0.2156     1.6546    -3.8539 C.2     
  33 C33            0.6352     2.1173    -5.0085 C.3     
  34 C34           -1.7160     1.6190    -3.9903 C.3     
  35 H35            2.8957     2.0911     3.1559 H       
  36 H36            2.6769    -0.3417     3.2086 H       
  37 H37            2.1988    -1.5943     1.1477 H       
  38 H38            1.9389    -0.4227    -0.9920 H       
  39 H39            3.0781     5.3481     1.9455 H       
  40 H40            4.6428     5.8348    -0.1202 H       
  41 H41            3.1939     8.2895    -0.6853 H       
  42 H42            4.9602    10.0732    -1.6659 H       
  43 H43            4.7512    10.3517     0.0797 H       
  44 H44            7.1748     9.9633     0.4319 H       
  45 H45            7.3838     9.6848    -1.3137 H       
  46 H46            6.5699    11.9807    -1.7775 H       
  47 H47            6.3609    12.2592    -0.0319 H       
  48 H48            8.7845    11.8709     0.3203 H       
  49 H49            8.9935    11.5924    -1.4253 H       
  50 H50            8.1796    13.8883    -1.8890 H       
  51 H51            7.9706    14.1668    -0.1435 H       
  52 H52           10.3942    13.7785     0.2087 H       
  53 H53           10.6032    13.5000    -1.5369 H       
  54 H54            9.7893    15.7959    -2.0006 H       
  55 H55            9.5803    16.0744    -0.2550 H       
  56 H56           12.0039    15.6861     0.0971 H       
  57 H57           12.2129    15.4076    -1.6484 H       
  58 H58           11.3990    17.7035    -2.1122 H       
  59 H59           11.1900    17.9820    -0.3666 H       
  60 H60           13.6136    17.5936    -0.0145 H       
  61 H61           13.8226    17.3151    -1.7600 H       
  62 H62           13.0087    19.6110    -2.2238 H       
  63 H63           12.7997    19.8895    -0.4782 H       
  64 H64           14.4287    19.6412    -1.1510 H       
  65 H65            2.2624     1.9275    -3.4234 H       
  66 H66            2.2851     0.4239    -2.4711 H       
  67 H67           -0.2540     0.8824    -1.9305 H       
  68 H68            0.9751     1.2528    -5.5788 H       
  69 H69            0.0477     2.7703    -5.6540 H       
  70 H70            1.4982     2.6636    -4.6278 H       
  71 H71           -2.1569     1.2600    -3.0604 H       
  72 H72           -2.0852     2.6220    -4.2041 H       
  73 H73           -1.9910     0.9493    -4.8051 H       
@<TRIPOS>BOND
   1    1    2 ar
   2    1    6 ar
   3    1   35 1
   4    2    3 ar
   5    2   36 1
   6    3    4 ar
   7    3   37 1
   8    4    5 ar
   9    4   38 1
  10    5    6 ar
  11    5    8 1
  12    6    7 1
  13    7   10 2
  14    7   11 1
  15    8    9 am
  16    8   30 1
  17    9   10 1
  18    9   12 2
  19   10   13 1
  20   11   39 1
  21   13   14 2
  22   13   15 am
  23   15   16 1
  24   15   40 1
  25   16   17 am
  26   16   41 1
  27   17   18 1
  28   17   19 2
  29   18   20 1
  30   18   42 1
  31   18   43 1
  32   20   21 1
  33   20   44 1
  34   20   45 1
  35   21   22 1
  36   21   46 1
  37   21   47 1
  38   22   23 1
  39   22   48 1
  40   22   49 1
  41   23   24 1
  42   23   50 1
  43   23   51 1
  44   24   25 1
  45   24   52 1
  46   24   53 1
  47   25   26 1
  48   25   54 1
  49   25   55 1
  50   26   27 1
  51   26   56 1
  52   26   57 1
  53   27   28 1
  54   27   58 1
  55   27   59 1
  56   28   29 1
  57   28   60 1
  58   28   61 1
  59   29   62 1
  60   29   63 1
  61   29   64 1
  62   30   31 1
  63   30   65 1
  64   30   66 1
  65   31   32 2
  66   31   67 1
  67   32   33 1
  68   32   34 1
  69   33   68 1
  70   33   69 1
  71   33   70 1
  72   34   71 1
  73   34   72 1
  74   34   73 1

#	End of record

