#	Name: ASD03092031
#	Creating user name:	WinNT
#	Creation time:	15. 06. 2019 20:31

#	Modifying user name:	WinNT
#	Modification time:	15. 06. 2019 20:31

#	Program:	/corina/corina34_cracker 3.40 0067  02.08.2006

@<TRIPOS>MOLECULE
ASD03092031
  46   48    0    0    0
SMALL
NO_CHARGES


@<TRIPOS>ATOM
   1 N1            -0.0333     1.2352    -0.2402 N.pl3   
   2 C2            -0.0976    -0.1030     0.0104 C.2     
   3 C3            -1.4090    -0.4166     0.2261 C.2     
   4 C4            -2.1567     0.7616     0.1029 C.2     
   5 N5            -1.3347     1.7483    -0.1699 N.2     
   6 C6             1.1819     2.0019    -0.5259 C.3     
   7 C7             1.2843     2.2528    -2.0317 C.3     
   8 N8            -3.5447     0.8696     0.2514 N.pl3   
   9 C9            -4.1557     2.1270     0.2181 C.ar    
  10 C10           -5.4830     2.2452    -0.1731 C.ar    
  11 C11           -6.0845     3.4882    -0.2047 C.ar    
  12 C12           -5.3653     4.6158     0.1532 C.ar    
  13 C13           -4.0416     4.5004     0.5437 C.ar    
  14 C14           -3.4376     3.2592     0.5819 C.ar    
  15 C15            1.0443    -1.0438     0.0420 C.ar    
  16 C16            2.2210    -0.7577    -0.6583 C.ar    
  17 C17            3.2598    -1.6703    -0.5964 C.ar    
  18 C18            3.1030    -2.8248     0.1486 C.ar    
  19 N19            1.9813    -3.0682     0.7990 N.ar    
  20 C20            0.9675    -2.2280     0.7754 C.ar    
  21 C21            2.6131     2.9437    -2.3444 C.3     
  22 C22            4.2314    -3.8212     0.2181 C.3     
  23 F23           -5.9556     5.8306     0.1211 F       
  24 O24            1.1289     3.2528     0.1629 O.3     
  25 C25           -7.5246     3.6172    -0.6297 C.3     
  26 F26           -8.0341     2.3519    -0.9408 F       
  27 F27           -8.2703     4.1766     0.4135 F       
  28 F28           -7.6063     4.4427    -1.7562 F       
  29 H29           -1.8000    -1.3979     0.4509 H       
  30 H30            2.0535     1.4395    -0.1912 H       
  31 H31            1.2353     1.3021    -2.5627 H       
  32 H32            0.4596     2.8901    -2.3508 H       
  33 H33           -4.0826     0.0722     0.3773 H       
  34 H34           -6.0443     1.3659    -0.4528 H       
  35 H35           -3.4824     5.3814     0.8222 H       
  36 H36           -2.4054     3.1696     0.8869 H       
  37 H37            2.3163     0.1519    -1.2329 H       
  38 H38            4.1830    -1.4829    -1.1247 H       
  39 H39            0.0652    -2.4623     1.3208 H       
  40 H40            3.4379     2.3064    -2.0254 H       
  41 H41            2.6861     3.1224    -3.4172 H       
  42 H42            2.6621     3.8944    -1.8135 H       
  43 H43            4.8785    -3.5791     1.0612 H       
  44 H44            3.8236    -4.8235     0.3491 H       
  45 H45            4.8084    -3.7817    -0.7058 H       
  46 H46            0.3767     3.8072    -0.0858 H       
@<TRIPOS>BOND
   1    1    2 1
   2    1    6 1
   3    1    5 1
   4    2    3 2
   5    2   15 1
   6    3    4 1
   7    3   29 1
   8    4    5 2
   9    4    8 1
  10    6    7 1
  11    6   24 1
  12    6   30 1
  13    7   21 1
  14    7   31 1
  15    7   32 1
  16    8    9 1
  17    8   33 1
  18    9   10 ar
  19    9   14 ar
  20   10   11 ar
  21   10   34 1
  22   11   12 ar
  23   11   25 1
  24   12   13 ar
  25   12   23 1
  26   13   14 ar
  27   13   35 1
  28   14   36 1
  29   15   16 ar
  30   15   20 ar
  31   16   17 ar
  32   16   37 1
  33   17   18 ar
  34   17   38 1
  35   18   19 ar
  36   18   22 1
  37   19   20 ar
  38   20   39 1
  39   21   40 1
  40   21   41 1
  41   21   42 1
  42   22   43 1
  43   22   44 1
  44   22   45 1
  45   24   46 1
  46   25   26 1
  47   25   27 1
  48   25   28 1

#	End of record

