#	Name: ASD03430945
#	Creating user name:	WinNT
#	Creation time:	15. 06. 2019 20:41

#	Modifying user name:	WinNT
#	Modification time:	15. 06. 2019 20:41

#	Program:	/corina/corina34_cracker 3.40 0067  02.08.2006

@<TRIPOS>MOLECULE
ASD03430945
  45   50    0    0    0
SMALL
NO_CHARGES


@<TRIPOS>ATOM
   1 O1             0.1934     1.6699    -0.3097 O.3     
   2 C2             0.1573     0.2305    -0.3192 C.3     
   3 O3             1.4170    -0.1398    -0.9095 O.3     
   4 C4             2.2702     0.8880    -0.6254 C.ar    
   5 C5             1.5172     2.0008    -0.2577 C.ar    
   6 C6             3.6511     0.9648    -0.6505 C.ar    
   7 C7             4.2975     2.1498    -0.3118 C.ar    
   8 C8             3.5344     3.2571     0.0459 C.ar    
   9 C9             2.1575     3.1818     0.0779 C.ar    
  10 O10            5.6311     2.4299    -0.2554 O.3     
  11 C11            4.5041     4.3745     0.3236 C.3     
  12 C12            5.8179     3.8582    -0.2787 C.3     
  13 N13            3.9735     6.5654     0.7013 N.am    
  14 C14            4.0727     5.6699    -0.3014 C.2     
  15 C15            4.6360     4.6644     1.7893 C.ar    
  16 C16            4.9942     3.9050     2.8807 C.ar    
  17 C17            5.0231     4.4741     4.1414 C.ar    
  18 C18            4.6914     5.8070     4.3025 C.ar    
  19 C19            4.3310     6.5717     3.2126 C.ar    
  20 C20            4.2994     6.0073     1.9397 C.ar    
  21 O21            3.8563     5.8711    -1.4777 O.2     
  22 C22            3.9703     8.0229     3.3997 C.3     
  23 F23            4.1693     8.3842     4.7365 F       
  24 F24            4.7793     8.8143     2.5773 F       
  25 F25            2.6274     8.2172     3.0591 F       
  26 C26            3.5715     7.9616     0.5139 C.3     
  27 C27            4.6803     8.7157    -0.1738 C.2     
  28 C28            4.8731     8.7653    -1.4924 C.2     
  29 C29            5.9600     9.5229    -1.8952 C.2     
  30 C30            6.6496    10.0884    -0.9018 C.2     
  31 S31            5.9130     9.6706     0.6397 S.3     
  32 Cl32           8.0541    11.0891    -1.1014 Cl      
  33 H33            0.0816    -0.1574     0.6966 H       
  34 H34           -0.6717    -0.1276    -0.9297 H       
  35 H35            4.2315     0.0994    -0.9345 H       
  36 H36            1.5773     4.0463     0.3649 H       
  37 H37            6.6675     4.1476     0.3399 H       
  38 H38            5.9422     4.2158    -1.3008 H       
  39 H39            5.2525     2.8642     2.7525 H       
  40 H40            5.3038     3.8788     4.9977 H       
  41 H41            4.7143     6.2513     5.2866 H       
  42 H42            2.6707     8.0013    -0.0987 H       
  43 H43            3.3710     8.4154     1.4845 H       
  44 H44            4.2304     8.2532    -2.1931 H       
  45 H45            6.2294     9.6465    -2.9337 H       
@<TRIPOS>BOND
   1    1    2 1
   2    1    5 1
   3    2    3 1
   4    2   33 1
   5    2   34 1
   6    3    4 1
   7    4    5 ar
   8    4    6 ar
   9    5    9 ar
  10    6    7 ar
  11    6   35 1
  12    7    8 ar
  13    7   10 1
  14    8    9 ar
  15    8   11 1
  16    9   36 1
  17   10   12 1
  18   11   12 1
  19   11   14 1
  20   11   15 1
  21   12   37 1
  22   12   38 1
  23   13   14 am
  24   13   20 1
  25   13   26 1
  26   14   21 2
  27   15   16 ar
  28   15   20 ar
  29   16   17 ar
  30   16   39 1
  31   17   18 ar
  32   17   40 1
  33   18   19 ar
  34   18   41 1
  35   19   20 ar
  36   19   22 1
  37   22   23 1
  38   22   24 1
  39   22   25 1
  40   26   27 1
  41   26   42 1
  42   26   43 1
  43   27   28 2
  44   27   31 1
  45   28   29 1
  46   28   44 1
  47   29   30 2
  48   29   45 1
  49   30   31 1
  50   30   32 1

#	End of record

