#	Name: ASD03430764
#	Creating user name:	WinNT
#	Creation time:	15. 06. 2019 20:41

#	Modifying user name:	WinNT
#	Modification time:	15. 06. 2019 20:41

#	Program:	/corina/corina34_cracker 3.40 0067  02.08.2006

@<TRIPOS>MOLECULE
ASD03430764
  34   38    0    0    0
SMALL
NO_CHARGES


@<TRIPOS>ATOM
   1 C1            -0.0166     1.3733     0.0096 C.ar    
   2 C2             0.0021    -0.0041     0.0020 C.ar    
   3 C3             1.2044    -0.6793    -0.0066 C.ar    
   4 C4             2.4066     0.0234     0.0039 C.ar    
   5 C5             2.3789     1.4128     0.0035 C.ar    
   6 C6             1.1695     2.0975     0.0022 C.ar    
   7 O7             3.4728    -0.8264     0.0263 O.3     
   8 C8             1.5601    -2.1409    -0.0407 C.3     
   9 C9             3.0498    -2.1319    -0.4114 C.3     
  10 C10            0.4359    -3.8649     0.9999 C.ar    
  11 C11            1.3153    -2.8210     1.2734 C.ar    
  12 C12            0.7412    -2.9031    -1.0425 C.2     
  13 N13            0.1191    -3.8860    -0.3617 N.am    
  14 O14            0.6564    -2.6783    -2.2314 O.2     
  15 C15            1.7680    -2.6035     2.5558 C.ar    
  16 C16            1.3510    -3.4255     3.5878 C.ar    
  17 C17            0.4784    -4.4665     3.3292 C.ar    
  18 C18            0.0206    -4.6891     2.0450 C.ar    
  19 C19           -1.1521     2.3776     0.0348 C.3     
  20 C20           -0.4183     3.6805     0.4315 C.3     
  21 O21            0.9261     3.4376    -0.0162 O.3     
  22 F22           -0.8323    -5.7081     1.8010 F       
  23 H23           -0.9263    -0.5559     0.0032 H       
  24 H24            3.3065     1.9660     0.0043 H       
  25 H25            3.1815    -2.2407    -1.4879 H       
  26 H26            3.5871    -2.9132     0.1262 H       
  27 H27           -0.4783    -4.5327    -0.7688 H       
  28 H28            2.4497    -1.7902     2.7563 H       
  29 H29            1.7068    -3.2547     4.5931 H       
  30 H30            0.1535    -5.1084     4.1347 H       
  31 H31           -1.6099     2.4728    -0.9498 H       
  32 H32           -1.8958     2.1060     0.7840 H       
  33 H33           -0.8482     4.5385    -0.0853 H       
  34 H34           -0.4454     3.8255     1.5114 H       
@<TRIPOS>BOND
   1    1    2 ar
   2    1    6 ar
   3    1   19 1
   4    2    3 ar
   5    2   23 1
   6    3    4 ar
   7    3    8 1
   8    4    5 ar
   9    4    7 1
  10    5    6 ar
  11    5   24 1
  12    6   21 1
  13    7    9 1
  14    8    9 1
  15    8   11 1
  16    8   12 1
  17    9   25 1
  18    9   26 1
  19   10   11 ar
  20   10   13 1
  21   10   18 ar
  22   11   15 ar
  23   12   13 am
  24   12   14 2
  25   13   27 1
  26   15   16 ar
  27   15   28 1
  28   16   17 ar
  29   16   29 1
  30   17   18 ar
  31   17   30 1
  32   18   22 1
  33   19   20 1
  34   19   31 1
  35   19   32 1
  36   20   21 1
  37   20   33 1
  38   20   34 1

#	End of record

