#	Name: ASD01209194
#	Creating user name:	WinNT
#	Creation time:	15. 06. 2019 19:11

#	Modifying user name:	WinNT
#	Modification time:	15. 06. 2019 19:11

#	Program:	/corina/corina34_cracker 3.40 0067  02.08.2006

@<TRIPOS>MOLECULE
ASD01209194
  71   73    0    0    0
SMALL
NO_CHARGES


@<TRIPOS>ATOM
   1 O1             2.4737     0.4522    -0.6439 O.3     
   2 O2             3.9759     1.7903     1.0489 O.3     
   3 C3             3.1809     7.0663    -8.3597 C.ar    
   4 C4             2.4622     7.0083    -9.5448 C.ar    
   5 C5             1.3196     6.2257    -9.6305 C.ar    
   6 C6             0.8924     5.4980    -8.5324 C.ar    
   7 C7             1.6124     5.5535    -7.3381 C.ar    
   8 C8             2.7636     6.3375    -7.2580 C.ar    
   9 O9             0.6188     6.1732   -10.7937 O.3     
  10 C10            1.1596     4.7793    -6.1631 C.2     
  11 N11            1.8563     4.8342    -5.0107 N.am    
  12 O12            0.1588     4.0931    -6.2362 O.2     
  13 C13            1.4308     4.1068    -3.9066 C.2     
  14 P14            3.2545     1.8370    -0.3897 P.3     
  15 O15            4.2729     2.0302    -1.4462 O.2     
  16 C16            2.0676     3.2201    -0.4297 C.3     
  17 N17            2.0257     4.0892    -2.7548 N.2     
  18 S18            0.0424     3.1100    -3.8664 S.3     
  19 C19            0.3753     2.6960    -2.1867 C.2     
  20 C20            1.4826     3.3403    -1.8133 C.2     
  21 C21            3.1408    -0.8047    -0.7751 C.3     
  22 C22            2.1074    -1.9088    -1.0074 C.3     
  23 C23            5.0350     0.8826     1.3593 C.3     
  24 C24            5.4893     1.1037     2.8035 C.3     
  25 O25            4.2990     7.8348    -8.2811 O.3     
  26 C26            4.9122     7.9584    -6.9963 C.3     
  27 C27            5.8327     6.7607    -6.7531 C.3     
  28 C28            5.7310     9.2498    -6.9441 C.3     
  29 C29            1.1801     6.8495   -11.9204 C.3     
  30 C30            0.6661     6.2365   -13.2498 C.3     
  31 C31            0.7756     7.4157   -14.2393 C.3     
  32 N32            0.7755     8.6532   -13.4454 N.am    
  33 C33            0.6461     8.3003   -12.0199 C.3     
  34 C34            0.8779     9.9031   -13.9390 C.2     
  35 O35            0.8672    10.8565   -13.1858 O.2     
  36 O36            0.9922    10.0953   -15.2667 O.3     
  37 C37            1.0982    11.4682   -15.7273 C.3     
  38 H38            2.7928     7.5743   -10.4032 H       
  39 H39            0.0028     4.8894    -8.5998 H       
  40 H40            3.3237     6.3832    -6.3357 H       
  41 H41            2.6549     5.3817    -4.9523 H       
  42 H42            1.2684     3.0338     0.2877 H       
  43 H43            2.5801     4.1464    -0.1702 H       
  44 H44           -0.2158     2.0385    -1.5663 H       
  45 H45            3.8268    -0.7653    -1.6213 H       
  46 H46            3.6999    -1.0162     0.1363 H       
  47 H47            2.6163    -2.8675    -1.1075 H       
  48 H48            1.4215    -1.9482    -0.1612 H       
  49 H49            1.5483    -1.6973    -1.9189 H       
  50 H50            4.6815    -0.1419     1.2424 H       
  51 H51            5.8727     1.0571     0.6841 H       
  52 H52            4.6516     0.9291     3.4786 H       
  53 H53            6.2972     0.4113     3.0402 H       
  54 H54            5.8428     2.1281     2.9203 H       
  55 H55            4.1409     7.9859    -6.2267 H       
  56 H56            6.6041     6.7332    -7.5228 H       
  57 H57            6.3005     6.8550    -5.7731 H       
  58 H58            5.2494     5.8407    -6.7903 H       
  59 H59            5.0753    10.1031    -7.1174 H       
  60 H60            6.1988     9.3441    -5.9641 H       
  61 H61            6.5024     9.2223    -7.7137 H       
  62 H62            2.2692     6.8355   -11.8791 H       
  63 H63            1.3020     5.4090   -13.5642 H       
  64 H64           -0.3697     5.9120   -13.1498 H       
  65 H65            1.7034     7.3390   -14.8062 H       
  66 H66           -0.0774     7.4106   -14.9179 H       
  67 H67           -0.3988     8.3418   -11.7122 H       
  68 H68            1.2498     8.9696   -11.4070 H       
  69 H69            0.2089    12.0221   -15.4266 H       
  70 H70            1.9811    11.9319   -15.2872 H       
  71 H71            1.1844    11.4813   -16.8138 H       
@<TRIPOS>BOND
   1    1   21 1
   2    1   14 1
   3    2   23 1
   4    2   14 1
   5    3    4 ar
   6    3   25 1
   7    3    8 ar
   8    4    5 ar
   9    4   38 1
  10    5    6 ar
  11    5    9 1
  12    6    7 ar
  13    6   39 1
  14    7    8 ar
  15    7   10 1
  16    8   40 1
  17    9   29 1
  18   10   11 am
  19   10   12 2
  20   11   13 1
  21   11   41 1
  22   13   17 2
  23   13   18 1
  24   14   15 2
  25   14   16 1
  26   16   20 1
  27   16   42 1
  28   16   43 1
  29   17   20 1
  30   18   19 1
  31   19   20 2
  32   19   44 1
  33   21   22 1
  34   21   45 1
  35   21   46 1
  36   22   47 1
  37   22   48 1
  38   22   49 1
  39   23   24 1
  40   23   50 1
  41   23   51 1
  42   24   52 1
  43   24   53 1
  44   24   54 1
  45   25   26 1
  46   26   27 1
  47   26   28 1
  48   26   55 1
  49   27   56 1
  50   27   57 1
  51   27   58 1
  52   28   59 1
  53   28   60 1
  54   28   61 1
  55   29   30 1
  56   29   33 1
  57   29   62 1
  58   30   31 1
  59   30   63 1
  60   30   64 1
  61   31   32 1
  62   31   65 1
  63   31   66 1
  64   32   33 1
  65   32   34 am
  66   33   67 1
  67   33   68 1
  68   34   35 2
  69   34   36 1
  70   36   37 1
  71   37   69 1
  72   37   70 1
  73   37   71 1

#	End of record

