#	Name: ASD01840161
#	Creating user name:	WinNT
#	Creation time:	15. 06. 2019 19:37

#	Modifying user name:	WinNT
#	Modification time:	15. 06. 2019 19:37

#	Program:	/corina/corina34_cracker 3.40 0067  02.08.2006

@<TRIPOS>MOLECULE
ASD01840161
  48   51    0    0    0
SMALL
NO_CHARGES


@<TRIPOS>ATOM
   1 C1            -1.1012     1.6119    -0.1233 C.3     
   2 C2            -0.8309     0.0995    -0.0271 C.3     
   3 N3            -0.5608    -0.5348    -1.3198 N.am    
   4 C4            -0.8012    -1.8503    -1.4883 C.2     
   5 C5            -0.5316    -2.4833    -2.7784 C.2     
   6 O6            -1.2427    -2.5114    -0.5662 O.2     
   7 C7            -0.7395    -3.7962    -3.0471 C.2     
   8 C8            -0.3944    -4.1840    -4.4023 C.ar    
   9 C9             0.0872    -3.1066    -5.1580 C.ar    
  10 S10            0.0956    -1.6436    -4.1833 S.3     
  11 C11           -0.4734    -5.4434    -5.0393 C.ar    
  12 C12           -0.0740    -5.5299    -6.3548 C.ar    
  13 N13            0.3677    -4.4568    -6.9881 N.ar    
  14 N14            0.4454    -3.3076    -6.4283 N.ar    
  15 C15           -0.1403    -6.8524    -7.0744 C.3     
  16 C16           -0.9792    -6.6558    -4.3008 C.3     
  17 N17           -1.2381    -4.6899    -2.1090 N.pl3   
  18 C18            0.4399     0.4777     0.7552 C.3     
  19 N19            0.3518     1.7823     0.0708 N.am    
  20 C20            1.2412     2.7432    -0.2487 C.2     
  21 O21            2.4131     2.6094     0.0465 O.2     
  22 N22            0.8316     3.8524    -0.8955 N.am    
  23 C23            1.7372     4.8886    -1.1502 C.ar    
  24 C24            1.3134     6.2102    -1.1038 C.ar    
  25 C25            3.0627     4.5975    -1.4442 C.ar    
  26 C26            3.9541     5.6223    -1.6947 C.ar    
  27 C27            3.5279     6.9371    -1.6524 C.ar    
  28 C28            2.2097     7.2304    -1.3552 C.ar    
  29 H29           -1.4543     1.9337    -1.1031 H       
  30 H30           -1.7029     2.0037     0.6968 H       
  31 H31           -1.5686    -0.4414     0.5657 H       
  32 H32           -0.2090    -0.0081    -2.0544 H       
  33 H33           -1.1141    -6.9574    -7.5527 H       
  34 H34            0.6427    -6.8938    -7.8315 H       
  35 H35            0.0025    -7.6626    -6.3593 H       
  36 H36           -2.0682    -6.6782    -4.3421 H       
  37 H37           -0.5793    -7.5571    -4.7653 H       
  38 H38           -0.6560    -6.6088    -3.2609 H       
  39 H39           -1.2355    -4.4566    -1.1675 H       
  40 H40           -1.5892    -5.5477    -2.3951 H       
  41 H41            0.2909     0.5363     1.8334 H       
  42 H42            1.3172    -0.1061     0.4769 H       
  43 H43           -0.0909     3.9326    -1.1844 H       
  44 H44            0.2839     6.4399    -0.8717 H       
  45 H45            3.3964     3.5708    -1.4767 H       
  46 H46            4.9852     5.3966    -1.9234 H       
  47 H47            4.2269     7.7367    -1.8483 H       
  48 H48            1.8807     8.2585    -1.3193 H       
@<TRIPOS>BOND
   1    1    2 1
   2    1   19 1
   3    1   29 1
   4    1   30 1
   5    2    3 1
   6    2   18 1
   7    2   31 1
   8    3    4 am
   9    3   32 1
  10    4    5 1
  11    4    6 2
  12    5    7 2
  13    5   10 1
  14    7    8 1
  15    7   17 1
  16    8    9 ar
  17    8   11 ar
  18    9   10 1
  19    9   14 ar
  20   11   12 ar
  21   11   16 1
  22   12   13 ar
  23   12   15 1
  24   13   14 ar
  25   15   33 1
  26   15   34 1
  27   15   35 1
  28   16   36 1
  29   16   37 1
  30   16   38 1
  31   17   39 1
  32   17   40 1
  33   18   19 1
  34   18   41 1
  35   18   42 1
  36   19   20 am
  37   20   21 2
  38   20   22 am
  39   22   23 1
  40   22   43 1
  41   23   25 ar
  42   23   24 ar
  43   24   28 ar
  44   24   44 1
  45   25   26 ar
  46   25   45 1
  47   26   27 ar
  48   26   46 1
  49   27   28 ar
  50   27   47 1
  51   28   48 1

#	End of record

