#	Name: ASD03091972
#	Creating user name:	WinNT
#	Creation time:	15. 06. 2019 20:31

#	Modifying user name:	WinNT
#	Modification time:	15. 06. 2019 20:31

#	Program:	/corina/corina34_cracker 3.40 0067  02.08.2006

@<TRIPOS>MOLECULE
ASD03091972
  57   61    0    0    0
SMALL
NO_CHARGES


@<TRIPOS>ATOM
   1 C1            -0.1153     1.3615     0.4990 C.ar    
   2 C2            -1.3528     1.9689     0.5723 C.ar    
   3 C3            -2.4851     1.2787     0.1361 C.ar    
   4 C4            -2.3681    -0.0190    -0.3720 C.ar    
   5 C5            -1.1447    -0.6240    -0.4457 C.ar    
   6 C6            -0.0087     0.0566    -0.0131 C.ar    
   7 O7             1.0105     1.9912     0.9159 O.3     
   8 C8             2.0369     1.1820     1.4902 C.3     
   9 N9             2.3234     0.0234     0.6437 N.am    
  10 C10            1.3317    -0.5596    -0.0691 C.2     
  11 C11           -3.5974    -0.7543    -0.8401 C.3     
  12 C12           -3.9086    -0.3591    -2.2607 C.ar    
  13 C13           -4.8064     0.6622    -2.5119 C.ar    
  14 C14           -3.2914    -1.0146    -3.3103 C.ar    
  15 C15           -3.5742    -0.6543    -4.6133 C.ar    
  16 C16           -4.4792     0.3672    -4.8688 C.ar    
  17 C17           -5.0936     1.0267    -3.8128 C.ar    
  18 O18            1.5377    -1.5575    -0.7330 O.2     
  19 C19            3.6870    -0.5067     0.5677 C.3     
  20 C20            3.6957    -1.9648     1.0341 C.3     
  21 O21            5.0155    -2.4972     0.9044 O.3     
  22 C22            4.1825    -0.4390    -0.8802 C.3     
  23 C23            5.5774    -1.0667    -0.9607 C.3     
  24 C24            5.5132    -2.5032    -0.4352 C.3     
  25 O25            4.2474     0.9254    -1.2999 O.3     
  26 C26           -3.8125     1.9217     0.2119 C.2     
  27 C27           -3.9053     3.2324     0.3943 C.2     
  28 N28           -4.7684     0.7351    -6.1902 N.pl3   
  29 C29           -5.6213     1.7108    -6.5761 C.2     
  30 C30           -5.6180     1.7493    -7.9288 C.2     
  31 C31           -4.7344     0.7653    -8.3856 C.2     
  32 N32           -4.2203     0.1612    -7.3446 N.2     
  33 H33           -1.4443     2.9709     0.9648 H       
  34 H34           -1.0590    -1.6265    -0.8381 H       
  35 H35            2.9430     1.7777     1.6008 H       
  36 H36            1.7138     0.8370     2.4724 H       
  37 H37           -3.4183    -1.8284    -0.7928 H       
  38 H38           -4.4405    -0.4978    -0.1987 H       
  39 H39           -5.2838     1.1751    -1.6900 H       
  40 H40           -2.5873    -1.8088    -3.1109 H       
  41 H41           -3.0917    -1.1663    -5.4326 H       
  42 H42           -5.7955     1.8239    -4.0083 H       
  43 H43            4.3438     0.0847     1.2055 H       
  44 H44            3.3847    -2.0145     2.0776 H       
  45 H45            3.0072    -2.5467     0.4213 H       
  46 H46            3.4976    -0.9884    -1.5261 H       
  47 H47            5.9149    -1.0728    -1.9971 H       
  48 H48            6.2731    -0.4876    -0.3535 H       
  49 H49            6.5114    -2.9408    -0.4502 H       
  50 H50            4.8484    -3.0921    -1.0673 H       
  51 H51            4.5542     1.0430    -2.2093 H       
  52 H52           -4.7078     1.3247     0.1188 H       
  53 H53           -4.8760     3.7026     0.4498 H       
  54 H54           -3.0101     3.8294     0.4874 H       
  55 H55           -6.2013     2.3452    -5.9223 H       
  56 H56           -6.1958     2.4206    -8.5467 H       
  57 H57           -4.5114     0.5452    -9.4191 H       
@<TRIPOS>BOND
   1    1    6 ar
   2    1    7 1
   3    1    2 ar
   4    2    3 ar
   5    2   33 1
   6    3    4 ar
   7    3   26 1
   8    4    5 ar
   9    4   11 1
  10    5    6 ar
  11    5   34 1
  12    6   10 1
  13    7    8 1
  14    8    9 1
  15    8   35 1
  16    8   36 1
  17    9   10 am
  18    9   19 1
  19   10   18 2
  20   11   12 1
  21   11   37 1
  22   11   38 1
  23   12   14 ar
  24   12   13 ar
  25   13   17 ar
  26   13   39 1
  27   14   15 ar
  28   14   40 1
  29   15   16 ar
  30   15   41 1
  31   16   17 ar
  32   16   28 1
  33   17   42 1
  34   19   22 1
  35   19   20 1
  36   19   43 1
  37   20   21 1
  38   20   44 1
  39   20   45 1
  40   21   24 1
  41   22   23 1
  42   22   25 1
  43   22   46 1
  44   23   24 1
  45   23   47 1
  46   23   48 1
  47   24   49 1
  48   24   50 1
  49   25   51 1
  50   26   27 2
  51   26   52 1
  52   27   53 1
  53   27   54 1
  54   28   32 1
  55   28   29 1
  56   29   30 2
  57   29   55 1
  58   30   31 1
  59   30   56 1
  60   31   32 2
  61   31   57 1

#	End of record

