#	Name: ASD02030162
#	Creating user name:	WinNT
#	Creation time:	15. 06. 2019 20:14

#	Modifying user name:	WinNT
#	Modification time:	15. 06. 2019 20:14

#	Program:	/corina/corina34_cracker 3.40 0067  02.08.2006

@<TRIPOS>MOLECULE
ASD02030162
  61   65    0    0    0
SMALL
NO_CHARGES


@<TRIPOS>ATOM
   1 N1            -0.0164     1.3641     0.1733 N.am    
   2 C2            -0.0668    -0.1020     0.0842 C.3     
   3 C3            -1.1233    -0.6169     1.0697 C.3     
   4 N4            -2.3626     0.1478     0.8714 N.am    
   5 C5            -2.3121     1.6139     0.9605 C.3     
   6 C6            -1.2567     2.1284    -0.0194 C.3     
   7 C7             1.1455     1.9960     0.4327 C.2     
   8 C8             2.3526     1.2133     0.7726 C.2     
   9 N9             3.5715     1.6902     0.9071 N.2     
  10 N10            2.3976    -0.1114     1.0046 N.2     
  11 C11            3.6420    -0.4177     1.2703 C.2     
  12 N12            4.3645     0.7194     1.2056 N.pl3   
  13 O13            1.2007     3.2095     0.3871 O.2     
  14 C14           -3.5244    -0.4841     0.6120 C.2     
  15 C15           -3.5598    -1.9519     0.5253 C.2     
  16 O16           -4.5438     0.1596     0.4497 O.2     
  17 C17           -0.9930     3.6126     0.2426 C.3     
  18 C18           -1.7515     1.9367    -1.4544 C.3     
  19 C19           -3.3733    -2.7138    -0.5864 C.2     
  20 C20            5.7449     0.8267     1.4250 C.ar    
  21 C21            6.3702     2.0624     1.3272 C.ar    
  22 C22            7.7302     2.1662     1.5442 C.ar    
  23 C23            8.4701     1.0388     1.8590 C.ar    
  24 C24            7.8480    -0.1949     1.9570 C.ar    
  25 C25            6.4877    -0.3019     1.7460 C.ar    
  26 C26            8.4095     3.5072     1.4377 C.3     
  27 F27            9.8004     1.1422     2.0704 F       
  28 O28           -3.4797    -4.0100    -0.2719 O.3     
  29 C29           -3.7379    -4.1772     1.0416 C.ar    
  30 C30           -3.7988    -2.9047     1.6277 C.ar    
  31 C31           -3.9305    -5.3008     1.8363 C.ar    
  32 C32           -4.1842    -5.1564     3.1834 C.ar    
  33 C33           -4.2501    -3.8965     3.7594 C.ar    
  34 C34           -4.0544    -2.7705     2.9886 C.ar    
  35 C35           -3.0897    -2.1778    -1.9660 C.3     
  36 H36           -0.3371    -0.3978    -0.9294 H       
  37 H37            0.9073    -0.5179     0.3419 H       
  38 H38           -1.3122    -1.6742     0.8841 H       
  39 H39           -0.7683    -0.4799     2.0911 H       
  40 H40           -3.2862     2.0298     0.7028 H       
  41 H41           -2.0419     1.9097     1.9742 H       
  42 H42            4.0211    -1.4020     1.5024 H       
  43 H43           -0.5223     3.7312     1.2185 H       
  44 H44           -0.3321     4.0060    -0.5298 H       
  45 H45           -1.9367     4.1578     0.2256 H       
  46 H46           -2.6786     2.4920    -1.5963 H       
  47 H47           -0.9977     2.3041    -2.1508 H       
  48 H48           -1.9307     0.8774    -1.6385 H       
  49 H49            5.7935     2.9418     1.0813 H       
  50 H50            8.4267    -1.0732     2.2023 H       
  51 H51            6.0029    -1.2639     1.8228 H       
  52 H52            8.4012     3.9970     2.4114 H       
  53 H53            9.4397     3.3676     1.1100 H       
  54 H54            7.8791     4.1268     0.7147 H       
  55 H55           -3.8817    -6.2869     1.3985 H       
  56 H56           -4.3334    -6.0329     3.7964 H       
  57 H57           -4.4500    -3.7974     4.8161 H       
  58 H58           -4.1058    -1.7896     3.4373 H       
  59 H59           -2.0127    -2.0841    -2.1051 H       
  60 H60           -3.4941    -2.8621    -2.7119 H       
  61 H61           -3.5571    -1.1996    -2.0790 H       
@<TRIPOS>BOND
   1    1    2 1
   2    1    7 am
   3    1    6 1
   4    2    3 1
   5    2   36 1
   6    2   37 1
   7    3    4 1
   8    3   38 1
   9    3   39 1
  10    4    5 1
  11    4   14 am
  12    5    6 1
  13    5   40 1
  14    5   41 1
  15    6   17 1
  16    6   18 1
  17    7    8 1
  18    7   13 2
  19    8    9 2
  20    8   10 1
  21    9   12 1
  22   10   11 2
  23   11   12 1
  24   11   42 1
  25   12   20 1
  26   14   15 1
  27   14   16 2
  28   15   19 2
  29   15   30 1
  30   17   43 1
  31   17   44 1
  32   17   45 1
  33   18   46 1
  34   18   47 1
  35   18   48 1
  36   19   28 1
  37   19   35 1
  38   20   21 ar
  39   20   25 ar
  40   21   22 ar
  41   21   49 1
  42   22   23 ar
  43   22   26 1
  44   23   24 ar
  45   23   27 1
  46   24   25 ar
  47   24   50 1
  48   25   51 1
  49   26   52 1
  50   26   53 1
  51   26   54 1
  52   28   29 1
  53   29   30 ar
  54   29   31 ar
  55   30   34 ar
  56   31   32 ar
  57   31   55 1
  58   32   33 ar
  59   32   56 1
  60   33   34 ar
  61   33   57 1
  62   34   58 1
  63   35   59 1
  64   35   60 1
  65   35   61 1

#	End of record

