#	Name: ASD01816902
#	Creating user name:	WinNT
#	Creation time:	15. 06. 2019 19:36

#	Modifying user name:	WinNT
#	Modification time:	15. 06. 2019 19:36

#	Program:	/corina/corina34_cracker 3.40 0067  02.08.2006

@<TRIPOS>MOLECULE
ASD01816902
  55   58    0    0    0
SMALL
NO_CHARGES


@<TRIPOS>ATOM
   1 C1            -0.0168     1.3889     0.0097 C.ar    
   2 C2             0.0021    -0.0041     0.0020 C.ar    
   3 C3             1.1794    -0.6886    -0.0124 C.ar    
   4 C4             2.3934     0.0157    -0.0201 C.ar    
   5 C5             2.3803     1.4351    -0.0129 C.ar    
   6 C6             1.1408     2.1077     0.0025 C.ar    
   7 C7             3.6293    -0.6585    -0.0345 C.ar    
   8 C8             4.7719     0.0878    -0.0410 C.ar    
   9 C9             4.6903     1.4886    -0.0333 C.ar    
  10 N10            3.5280     2.1114    -0.0194 N.ar    
  11 C11            5.9395     2.2867    -0.0401 C.2     
  12 N12            5.8790     3.6331    -0.0329 N.am    
  13 O13            7.0180     1.7271    -0.0521 O.2     
  14 C14            7.1135     4.4219    -0.0395 C.3     
  15 C15            6.8462     5.7972     0.5797 C.3     
  16 C16            3.6889    -2.1643    -0.0420 C.3     
  17 C17            3.5722    -2.6646    -1.4587 C.ar    
  18 C18            4.7093    -2.8497    -2.2333 C.ar    
  19 C19            2.3338    -2.9490    -1.9983 C.ar    
  20 N20            2.2206    -3.3876    -3.2378 N.ar    
  21 C21            3.2796    -3.5713    -4.0083 C.ar    
  22 C22            4.5573    -3.3107    -3.5292 C.ar    
  23 C23            8.1203     6.6418     0.4969 C.3     
  24 O24            8.5306     6.7501    -0.8677 O.3     
  25 C25            8.8399     5.4989    -1.4849 C.3     
  26 C26            7.5947     4.6083    -1.4818 C.3     
  27 O27            6.4661     5.6390     1.9481 O.3     
  28 O28            3.1171    -4.0239    -5.2770 O.3     
  29 C29            1.7788    -4.2787    -5.7085 C.3     
  30 C30            1.7956    -4.7786    -7.1544 C.3     
  31 F31            2.5430    -5.9587    -7.2312 F       
  32 F32            0.4854    -5.0281    -7.5768 F       
  33 F33            2.3737    -3.8060    -7.9773 F       
  34 F34            1.1014     3.4581     0.0097 F       
  35 H35           -0.9642     1.9075     0.0169 H       
  36 H36           -0.9303    -0.5490     0.0080 H       
  37 H37            1.1789    -1.7686    -0.0175 H       
  38 H38            5.7362    -0.3984    -0.0517 H       
  39 H39            5.0180     4.0798    -0.0233 H       
  40 H40            7.8797     3.9047     0.5379 H       
  41 H41            6.0442     6.2932     0.0329 H       
  42 H42            4.6379    -2.4925     0.3822 H       
  43 H43            2.8676    -2.5634     0.5531 H       
  44 H44            5.6902    -2.6386    -1.8338 H       
  45 H45            1.4464    -2.8113    -1.3983 H       
  46 H46            5.4200    -3.4614    -4.1612 H       
  47 H47            7.9238     7.6364     0.8974 H       
  48 H48            8.9105     6.1656     1.0774 H       
  49 H49            9.1618     5.6700    -2.5122 H       
  50 H50            9.6395     5.0077    -0.9303 H       
  51 H51            7.8401     3.6374    -1.9122 H       
  52 H52            6.8078     5.0803    -2.0702 H       
  53 H53            6.2813     6.4717     2.4037 H       
  54 H54            1.3284    -5.0364    -5.0673 H       
  55 H55            1.1965    -3.3593    -5.6486 H       
@<TRIPOS>BOND
   1    1    2 ar
   2    1    6 ar
   3    1   35 1
   4    2    3 ar
   5    2   36 1
   6    3    4 ar
   7    3   37 1
   8    4    5 ar
   9    4    7 ar
  10    5    6 ar
  11    5   10 ar
  12    6   34 1
  13    7    8 ar
  14    7   16 1
  15    8    9 ar
  16    8   38 1
  17    9   10 ar
  18    9   11 1
  19   11   12 am
  20   11   13 2
  21   12   14 1
  22   12   39 1
  23   14   15 1
  24   14   26 1
  25   14   40 1
  26   15   23 1
  27   15   27 1
  28   15   41 1
  29   16   17 1
  30   16   42 1
  31   16   43 1
  32   17   18 ar
  33   17   19 ar
  34   18   22 ar
  35   18   44 1
  36   19   20 ar
  37   19   45 1
  38   20   21 ar
  39   21   22 ar
  40   21   28 1
  41   22   46 1
  42   23   24 1
  43   23   47 1
  44   23   48 1
  45   24   25 1
  46   25   26 1
  47   25   49 1
  48   25   50 1
  49   26   51 1
  50   26   52 1
  51   27   53 1
  52   28   29 1
  53   29   30 1
  54   29   54 1
  55   29   55 1
  56   30   31 1
  57   30   32 1
  58   30   33 1

#	End of record

