#	Name: ASD03081361
#	Creating user name:	WinNT
#	Creation time:	15. 06. 2019 20:27

#	Modifying user name:	WinNT
#	Modification time:	15. 06. 2019 20:27

#	Program:	/corina/corina34_cracker 3.40 0067  02.08.2006

@<TRIPOS>MOLECULE
ASD03081361
  29   31    0    0    0
SMALL
NO_CHARGES


@<TRIPOS>ATOM
   1 O1            -0.0162     1.3446     0.0094 O.3     
   2 C2             0.0021    -0.0041     0.0020 C.2     
   3 N3             1.2618    -0.3803    -0.0120 N.2     
   4 N4             2.0183     0.6604    -0.0137 N.2     
   5 C5             1.2732     1.7418    -0.0007 C.2     
   6 C6             0.8553     4.2025     0.0145 C.ar    
   7 C7             1.7579     3.1373     0.0012 C.ar    
   8 C8             3.1303     3.4143    -0.0099 C.ar    
   9 C9             3.5321     4.7386    -0.0071 C.ar    
  10 C10            2.5746     5.7367     0.0064 C.ar    
  11 N11            1.2876     5.4462     0.0166 N.ar    
  12 C12           -1.0166    -2.2903    -0.0002 C.ar    
  13 C13           -1.1749    -0.8935     0.0089 C.ar    
  14 C14           -2.4681    -0.3626     0.0250 C.ar    
  15 C15           -3.5399    -1.2401     0.0314 C.ar    
  16 C16           -3.3045    -2.6022     0.0217 C.ar    
  17 N17           -2.0761    -3.0837     0.0070 N.ar    
  18 S18            0.6009    -2.9886    -0.0279 S.3     
  19 C19            0.1830    -4.7497    -0.0300 C.3     
  20 H20           -0.2064     4.0046     0.0186 H       
  21 H21            3.8567     2.6151    -0.0199 H       
  22 H22            4.5824     4.9901    -0.0150 H       
  23 H23            2.8856     6.7709     0.0090 H       
  24 H24           -2.6275     0.7056     0.0327 H       
  25 H25           -4.5518    -0.8629     0.0442 H       
  26 H26           -4.1415    -3.2848     0.0267 H       
  27 H27           -0.3874    -4.9888     0.8676 H       
  28 H28           -0.4142    -4.9803    -0.9122 H       
  29 H29            1.0988    -5.3404    -0.0466 H       
@<TRIPOS>BOND
   1    1    2 1
   2    1    5 1
   3    2    3 2
   4    2   13 1
   5    3    4 1
   6    4    5 2
   7    5    7 1
   8    6    7 ar
   9    6   11 ar
  10    6   20 1
  11    7    8 ar
  12    8    9 ar
  13    8   21 1
  14    9   10 ar
  15    9   22 1
  16   10   11 ar
  17   10   23 1
  18   12   13 ar
  19   12   17 ar
  20   12   18 1
  21   13   14 ar
  22   14   15 ar
  23   14   24 1
  24   15   16 ar
  25   15   25 1
  26   16   17 ar
  27   16   26 1
  28   18   19 1
  29   19   27 1
  30   19   28 1
  31   19   29 1

#	End of record

