#	Name: ASD02030107
#	Creating user name:	WinNT
#	Creation time:	15. 06. 2019 20:14

#	Modifying user name:	WinNT
#	Modification time:	15. 06. 2019 20:14

#	Program:	/corina/corina34_cracker 3.40 0067  02.08.2006

@<TRIPOS>MOLECULE
ASD02030107
  62   66    0    0    0
SMALL
NO_CHARGES


@<TRIPOS>ATOM
   1 N1            -0.2693     1.2160     0.4269 N.am    
   2 C2            -0.6158    -0.2120     0.4005 C.3     
   3 C3            -1.7548    -0.4584     1.3976 C.3     
   4 N4            -2.8133     0.5319     1.1555 N.am    
   5 C5            -2.4668     1.9599     1.1819 C.3     
   6 C6            -1.3289     2.2064     0.1903 C.3     
   7 C7             0.9965     1.6103     0.6693 C.2     
   8 C8             2.0237     0.6131     1.0379 C.2     
   9 N9             3.2570     0.8752     1.4134 N.2     
  10 N10            1.8601    -0.7226     1.0542 N.2     
  11 C11            2.9966    -1.2490     1.4336 C.2     
  12 N12            3.8608    -0.2372     1.6548 N.pl3   
  13 O13            1.2936     2.7861     0.5848 O.2     
  14 C14           -4.0791     0.1375     0.9131 C.2     
  15 C15           -4.3910    -1.2936     0.7814 C.2     
  16 O16           -4.9636     0.9654     0.8033 O.2     
  17 C17           -0.7699     3.6165     0.3905 C.3     
  18 C18           -1.8522     2.0560    -1.2395 C.3     
  19 C19            5.1907    -0.3730     2.0755 C.ar    
  20 C20            5.9782     0.7544     2.2673 C.ar    
  21 C21            7.2885     0.6173     2.6820 C.ar    
  22 C22            7.8164    -0.6411     2.9056 C.ar    
  23 C23            7.0346    -1.7657     2.7155 C.ar    
  24 C24            5.7218    -1.6349     2.3069 C.ar    
  25 C25           -4.3775    -1.9990    -0.3797 C.2     
  26 N26           -4.7385    -2.1363     1.8194 N.pl3   
  27 C27           -4.9552    -3.3961     1.3134 C.ar    
  28 C28           -4.7332    -3.3354    -0.0762 C.ar    
  29 C29           -5.3212    -4.6067     1.8955 C.ar    
  30 C30           -5.4652    -5.7280     1.1099 C.ar    
  31 C31           -5.2487    -5.6649    -0.2611 C.ar    
  32 C32           -4.8848    -4.4910    -0.8538 C.ar    
  33 C33           -4.0437    -1.4564    -1.7454 C.3     
  34 C34           -4.8568    -1.7509     3.2279 C.3     
  35 H35           -0.9403    -0.4912    -0.6019 H       
  36 H36            0.2538    -0.8047     0.6846 H       
  37 H37           -2.1540    -1.4627     1.2560 H       
  38 H38           -1.3795    -0.3513     2.4154 H       
  39 H39           -3.3364     2.5526     0.8978 H       
  40 H40           -2.1423     2.2391     2.1843 H       
  41 H41            3.2039    -2.3023     1.5514 H       
  42 H42           -0.2914     3.6823     1.3677 H       
  43 H43           -0.0376     3.8309    -0.3878 H       
  44 H44           -1.5825     4.3409     0.3344 H       
  45 H45           -2.6475     2.7808    -1.4135 H       
  46 H46           -1.0395     2.2322    -1.9442 H       
  47 H47           -2.2423     1.0479    -1.3795 H       
  48 H48            5.5667     1.7374     2.0921 H       
  49 H49            7.9016     1.4938     2.8313 H       
  50 H50            8.8415    -0.7458     3.2291 H       
  51 H51            7.4497    -2.7472     2.8910 H       
  52 H52            5.1116    -2.5136     2.1589 H       
  53 H53           -5.4913    -4.6661     2.9604 H       
  54 H54           -5.7488    -6.6661     1.5637 H       
  55 H55           -5.3661    -6.5540    -0.8628 H       
  56 H56           -4.7191    -4.4516    -1.9203 H       
  57 H57           -2.9730    -1.5549    -1.9238 H       
  58 H58           -4.5914    -2.0171    -2.5029 H       
  59 H59           -4.3255    -0.4047    -1.7973 H       
  60 H60           -5.8509    -1.3429     3.4107 H       
  61 H61           -4.7017    -2.6264     3.8584 H       
  62 H62           -4.1057    -0.9966     3.4625 H       
@<TRIPOS>BOND
   1    1    2 1
   2    1    7 am
   3    1    6 1
   4    2    3 1
   5    2   35 1
   6    2   36 1
   7    3    4 1
   8    3   37 1
   9    3   38 1
  10    4    5 1
  11    4   14 am
  12    5    6 1
  13    5   39 1
  14    5   40 1
  15    6   17 1
  16    6   18 1
  17    7    8 1
  18    7   13 2
  19    8    9 2
  20    8   10 1
  21    9   12 1
  22   10   11 2
  23   11   12 1
  24   11   41 1
  25   12   19 1
  26   14   15 1
  27   14   16 2
  28   15   26 1
  29   15   25 2
  30   17   42 1
  31   17   43 1
  32   17   44 1
  33   18   45 1
  34   18   46 1
  35   18   47 1
  36   19   20 ar
  37   19   24 ar
  38   20   21 ar
  39   20   48 1
  40   21   22 ar
  41   21   49 1
  42   22   23 ar
  43   22   50 1
  44   23   24 ar
  45   23   51 1
  46   24   52 1
  47   25   33 1
  48   25   28 1
  49   26   27 1
  50   26   34 1
  51   27   28 ar
  52   27   29 ar
  53   28   32 ar
  54   29   30 ar
  55   29   53 1
  56   30   31 ar
  57   30   54 1
  58   31   32 ar
  59   31   55 1
  60   32   56 1
  61   33   57 1
  62   33   58 1
  63   33   59 1
  64   34   60 1
  65   34   61 1
  66   34   62 1

#	End of record

