#	Name: ASD08170660
#	Creating user name:	WinNT
#	Creation time:	15. 06. 2019 21:17

#	Modifying user name:	WinNT
#	Modification time:	15. 06. 2019 21:17

#	Program:	/corina/corina34_cracker 3.40 0067  02.08.2006

@<TRIPOS>MOLECULE
ASD08170660
  59   60    0    0    0
SMALL
NO_CHARGES


@<TRIPOS>ATOM
   1 C1            -0.0184     1.5028     0.0103 C.3     
   2 C2             0.0021    -0.0041     0.0020 C.2     
   3 N3            -1.1558    -0.6938     0.0094 N.am    
   4 C4            -1.1370    -2.0844     0.0017 C.2     
   5 S5            -2.5152    -3.1017     0.0094 S.3     
   6 C6            -1.4518    -4.5090    -0.0094 C.2     
   7 C7            -1.8869    -5.9518    -0.0140 C.3     
   8 C8            -2.0202    -6.4489     1.4268 C.3     
   9 C9            -2.6447    -8.5871     3.1874 C.3     
  10 C10           -3.0819   -10.0437     3.3552 C.3     
  11 C11           -3.1656   -10.3772     4.8224 C.2     
  12 S12           -1.8597   -11.0187     5.8197 S.3     
  13 C13           -2.9181   -11.0262     7.1667 C.2     
  14 N14           -2.5899   -11.4401     8.4532 N.am    
  15 C15           -3.5160   -11.3978     9.4315 C.2     
  16 C16           -3.1604   -11.8463    10.8256 C.3     
  17 N17           -0.0715    -2.8270    -0.0181 N.2     
  18 N18           -0.2299    -4.0795    -0.0190 N.2     
  19 N19           -4.2078   -10.2392     5.5790 N.2     
  20 N20           -4.0777   -10.5805     6.7875 N.2     
  21 O21           -4.6355   -10.9987     9.1900 O.2     
  22 O22            1.0605    -0.5961    -0.0113 O.2     
  23 S23           -2.5439    -8.1857     1.4212 S.3     
  24 O24           -4.3005   -11.7077    11.6759 O.3     
  25 O25            1.3223     1.9974     0.0002 O.3     
  26 C26            1.4158     3.4233     0.0069 C.3     
  27 C27           -4.0692   -12.1082    13.0280 C.3     
  28 C28            1.4629     3.9245     1.4518 C.3     
  29 C29            2.6888     3.8544    -0.7242 C.3     
  30 C30           -3.5785   -10.9071    13.8389 C.3     
  31 C31           -5.3718   -12.6346    13.6339 C.3     
  32 H32           -0.5455     1.8639    -0.8728 H       
  33 H33           -0.5286     1.8543     0.9071 H       
  34 H34           -2.0023    -0.2203     0.0200 H       
  35 H35           -2.8488    -6.0397    -0.5192 H       
  36 H36           -1.1447    -6.5534    -0.5387 H       
  37 H37           -1.0584    -6.3611     1.9319 H       
  38 H38           -2.7624    -5.8473     1.9515 H       
  39 H39           -3.3713    -7.9320     3.6680 H       
  40 H40           -1.6672    -8.4458     3.6485 H       
  41 H41           -4.0594   -10.1851     2.8941 H       
  42 H42           -2.3553   -10.6988     2.8745 H       
  43 H43           -1.6946   -11.7592     8.6464 H       
  44 H44           -2.8488   -12.8906    10.8029 H       
  45 H45           -2.3451   -11.2321    11.2080 H       
  46 H46            0.5466     3.8468    -0.4964 H       
  47 H47           -3.3145   -12.8943    13.0501 H       
  48 H48            1.5342     5.0121     1.4569 H       
  49 H49            0.5560     3.6173     1.9726 H       
  50 H50            2.3321     3.5010     1.9550 H       
  51 H51            2.6552     3.4974    -1.7535 H       
  52 H52            2.7601     4.9421    -0.7190 H       
  53 H53            3.5579     3.4309    -0.2209 H       
  54 H54           -4.3332   -10.1210    13.8168 H       
  55 H55           -3.4021   -11.2126    14.8702 H       
  56 H56           -2.6505   -10.5320    13.4072 H       
  57 H57           -5.7214   -13.4903    13.0563 H       
  58 H58           -5.1954   -12.9401    14.6653 H       
  59 H59           -6.1265   -11.8485    13.6118 H       
@<TRIPOS>BOND
   1    1    2 1
   2    1   25 1
   3    1   32 1
   4    1   33 1
   5    2    3 am
   6    2   22 2
   7    3    4 1
   8    3   34 1
   9    4    5 1
  10    4   17 2
  11    5    6 1
  12    6    7 1
  13    6   18 2
  14    7    8 1
  15    7   35 1
  16    7   36 1
  17    8   23 1
  18    8   37 1
  19    8   38 1
  20    9   10 1
  21    9   23 1
  22    9   39 1
  23    9   40 1
  24   10   11 1
  25   10   41 1
  26   10   42 1
  27   11   12 1
  28   11   19 2
  29   12   13 1
  30   13   14 1
  31   13   20 2
  32   14   15 am
  33   14   43 1
  34   15   16 1
  35   15   21 2
  36   16   24 1
  37   16   44 1
  38   16   45 1
  39   17   18 1
  40   19   20 1
  41   24   27 1
  42   25   26 1
  43   26   28 1
  44   26   29 1
  45   26   46 1
  46   27   30 1
  47   27   31 1
  48   27   47 1
  49   28   48 1
  50   28   49 1
  51   28   50 1
  52   29   51 1
  53   29   52 1
  54   29   53 1
  55   30   54 1
  56   30   55 1
  57   30   56 1
  58   31   57 1
  59   31   58 1
  60   31   59 1

#	End of record

