#	Name: ASD02120012
#	Creating user name:	WinNT
#	Creation time:	15. 06. 2019 20:18

#	Modifying user name:	WinNT
#	Modification time:	15. 06. 2019 20:18

#	Program:	/corina/corina34_cracker 3.40 0067  02.08.2006

@<TRIPOS>MOLECULE
ASD02120012
 317  321    0    0    0
SMALL
NO_CHARGES


@<TRIPOS>ATOM
   1 C1             2.7492    -3.4270    -0.5006 C.3     
   2 C2             6.6934    -1.4894     0.2220 C.3     
   3 C3             5.4424    -0.7135    -0.1913 C.3     
   4 C4             4.1836    -1.4974     0.1852 C.3     
   5 C5             4.1307    -2.7857    -0.6441 C.3     
   6 C6             2.6413    -4.6290    -1.4415 C.3     
   7 C7             1.3152    -5.3489    -1.1889 C.3     
   8 C8             8.8773    -1.2486     1.4227 C.3     
   9 C9             7.7746    -0.5024     0.6696 C.3     
  10 C10           10.0707    -0.3119     1.6283 C.3     
  11 C11            1.2573    -6.6257    -2.0292 C.3     
  12 C12            2.9747    -0.6549    -0.1543 C.2     
  13 N13            4.1795    -1.8275     1.6009 N.3     
  14 O14            2.1754    -0.3699     0.7084 O.2     
  15 N15           -4.5825    -9.2652    -6.0168 N.3     
  16 C16           -3.8039   -10.4605    -6.2922 C.3     
  17 C17           -4.6038   -11.3852    -7.1847 C.2     
  18 O18           -4.5119   -12.5870    -7.0504 O.2     
  19 C19           -2.4946   -10.1093    -7.0043 C.3     
  20 C20           -3.4838   -11.2012    -4.9911 C.3     
  21 C21           -3.3017   -10.2225    -3.8333 C.3     
  22 C22           -1.8786    -9.6626    -3.8395 C.3     
  23 C23           12.5401     9.1721    -1.1476 C.3     
  24 C24           12.5640     7.7402    -0.6783 C.2     
  25 O25           13.6166     7.2182    -0.3775 O.2     
  26 N26           11.7060     1.9811     3.5893 N.3     
  27 C27           12.2392     0.9251     4.4559 C.3     
  28 C28           11.4590     0.9268     5.7527 C.2     
  29 O29           12.0522     0.8464     6.8048 O.2     
  30 C30           12.1017    -0.4467     3.8048 C.3     
  31 C31           13.7122     1.2081     4.7612 C.3     
  32 C32           12.4730    -0.4238     2.3268 C.3     
  33 C33           11.3701    -1.1075     1.5119 C.3     
  34 C34           -0.0782    -7.3324    -1.7859 C.3     
  35 C35           -0.0462    -8.7173    -2.4327 C.3     
  36 C36           -1.4485    -9.3297    -2.4087 C.3     
  37 C37           -7.4942   -12.1559    -8.2883 C.3     
  38 C38           -6.1924   -11.7677    -8.9922 C.3     
  39 C39           -6.5115   -11.0648   -10.2865 C.2     
  40 N40           -5.4182   -10.8729    -8.1285 N.am    
  41 O41           -6.1298    -9.9283   -10.4694 O.2     
  42 C42           -7.1727   -12.9778    -7.0385 C.3     
  43 C43           -8.4549   -13.3602    -6.3451 C.2     
  44 O44           -9.5209   -13.0098    -6.8053 O.2     
  45 N45           -8.4170   -14.0914    -5.2136 N.am    
  46 C46           -7.7570   -12.0533   -13.6006 C.3     
  47 C47           -7.5312   -11.0159   -12.4990 C.3     
  48 C48           -8.7779   -10.1870   -12.3263 C.2     
  49 N49           -7.2210   -11.6992   -11.2408 N.am    
  50 O50           -9.3508   -10.1688   -11.2576 O.2     
  51 C51           -6.4736   -12.7999   -13.8583 C.2     
  52 N52           -6.4338   -13.7688   -14.7943 N.am    
  53 O53           -5.4764   -12.5289   -13.2233 O.2     
  54 N54           -9.2561    -9.4659   -13.3597 N.am    
  55 C55            1.9683     2.0766    -1.4276 C.3     
  56 C56            1.6458     0.6164    -1.7564 C.3     
  57 C57            1.3419     0.4987    -3.2293 C.2     
  58 N58            2.7995    -0.2231    -1.4192 N.am    
  59 O59            2.2398     0.3071    -4.0202 O.2     
  60 C60            0.7306     2.9172    -1.6073 C.2     
  61 N61            0.7716     4.2401    -1.3531 N.am    
  62 O62           -0.3025     2.4032    -1.9808 O.2     
  63 C63           -0.4625    -0.9700    -5.4433 C.3     
  64 C64           -0.2498     0.5027    -5.0838 C.3     
  65 C65           -1.5068     1.2792    -5.3790 C.2     
  66 N66            0.0683     0.6124    -3.6579 N.am    
  67 O67           -2.0756     1.8730    -4.4847 O.2     
  68 C68            0.8277    -1.7500    -5.1829 C.3     
  69 C69            0.5531    -3.2492    -5.3170 C.3     
  70 C70            1.8902    -1.3330    -6.2018 C.3     
  71 C71           -3.0065     3.1924    -7.8544 C.3     
  72 C72           -3.2616     2.0431    -6.8830 C.3     
  73 C73           -4.2915     1.0887    -7.4187 C.2     
  74 N74           -2.0072     1.3270    -6.6302 N.am    
  75 O75           -4.8411     0.2959    -6.6691 O.2     
  76 C76           -2.0628     4.1835    -7.2233 C.2     
  77 C77           -2.4037     5.2958    -6.5536 C.2     
  78 N78           -1.2783     5.9459    -6.1257 N.pl3   
  79 C79           -0.1574     5.2501    -6.5197 C.ar    
  80 C80           -0.5997     4.1124    -7.2189 C.ar    
  81 C81            1.2078     5.4603    -6.3541 C.ar    
  82 C82            2.1075     4.5594    -6.8799 C.ar    
  83 C83            1.6661     3.4414    -7.5746 C.ar    
  84 C84            0.3296     3.2080    -7.7367 C.ar    
  85 C85           -6.4789     0.4445   -10.2766 C.3     
  86 C86           -5.6873     0.0816    -9.0187 C.3     
  87 C87           -4.9835    -1.2391    -9.2162 C.2     
  88 N88           -4.6032     1.1144    -8.7790 N.am    
  89 O89           -4.2916    -1.4047   -10.1972 O.2     
  90 N90           -8.7273     3.3858   -11.0884 N.pl3   
  91 C91           -9.5103     3.9147   -12.0870 C.2     
  92 N92           -9.6187     3.2940   -13.2280 N.2     
  93 N93          -10.1791     5.0984   -11.8822 N.pl3   
  94 C94           -7.2231     1.7617   -10.0487 C.3     
  95 C95           -8.0147     2.1246   -11.3067 C.3     
  96 C96           -2.9330    -3.2031    -7.9308 C.3     
  97 C97           -4.3617    -3.4633    -8.4193 C.3     
  98 C98           -4.9952    -4.5258    -7.5595 C.2     
  99 N99           -5.1348    -2.2213    -8.3077 N.am    
 100 O100          -5.9420    -4.2470    -6.8611 O.2     
 101 C101          -2.0267    -4.3558    -8.3677 C.3     
 102 C102          -2.1354    -4.5442    -9.8821 C.3     
 103 C103          -0.5776    -4.0341    -7.9965 C.3     
 104 C104          -4.4072    -6.6558    -5.2074 C.3     
 105 C105          -5.0055    -6.9337    -6.5892 C.3     
 106 C106          -4.4721    -5.9164    -7.5695 C.2     
 107 N107          -4.6637    -8.2788    -7.0300 N.3     
 108 O108          -3.6221    -6.2413    -8.3635 O.2     
 109 C109          -5.3031    -7.2713    -4.1306 C.3     
 110 C110          -4.8898    -6.7380    -2.7574 C.3     
 111 C111          -6.7610    -6.8975    -4.4053 C.3     
 112 C112          12.3099     4.8163    -1.0808 C.3     
 113 C113          11.4390     5.6478    -0.1368 C.3     
 114 C114          12.0080     5.5855     1.2572 C.2     
 115 N115          11.4158     7.0398    -0.5930 N.am    
 116 O116          12.6499     6.5128     1.6896 O.2     
 117 C117          11.6823     4.8045    -2.4761 C.3     
 118 C118          12.4719     3.8876    -3.3743 C.2     
 119 O119          13.4938     3.3747    -2.9698 O.2     
 120 N120          12.0426     3.6376    -4.6272 N.am    
 121 C121          13.9000     3.8404     3.2650 C.3     
 122 C122          12.4431     4.2702     3.4484 C.3     
 123 C123          11.7791     4.3828     2.1003 C.2     
 124 N124          11.7363     3.2706     4.2604 N.3     
 125 O125          11.0609     3.4958     1.7048 O.2     
 126 O126          13.9519     2.6686     2.4488 O.3     
 127 C127           9.5164     2.4055     7.6401 C.3     
 128 C128           9.3273     1.0538     6.9497 C.3     
 129 C129           7.8605     0.8855     6.6019 C.2     
 130 N130          10.1155     1.0094     5.7177 N.am    
 131 O131           7.4985     0.9072     5.4469 O.2     
 132 C132           9.0243     3.5226     6.7176 C.3     
 133 C133           9.1116     4.8436     7.4376 C.2     
 134 O134           9.5266     4.8873     8.5764 O.2     
 135 N135           8.7286     5.9765     6.8161 N.am    
 136 C136           5.2438     2.1466     6.6715 C.3     
 137 C137           5.5915     0.7611     7.1968 C.3     
 138 C138           5.4048    -0.3453     6.2089 C.2     
 139 N139           7.0262     0.6884     7.7468 N.am    
 140 O140           5.3447    -1.4849     6.6516 O.2     
 141 C141           3.7619     2.1918     6.2938 C.3     
 142 O142           5.5072     3.1199     7.6841 O.3     
 143 C143           6.0932    -2.3631     3.9342 C.3     
 144 C144           4.9523    -1.3457     3.8604 C.3     
 145 C145           5.2754    -0.1599     4.7455 C.2     
 146 N146           4.7792    -0.8975     2.4863 N.3     
 147 O147           5.4237     0.9113     4.2071 O.2     
 148 C148           6.0019    -3.1271     5.2299 C.ar    
 149 C149           4.8402    -3.8028     5.5535 C.ar    
 150 C150           4.7564    -4.5036     6.7421 C.ar    
 151 C151           5.8346    -4.5291     7.6069 C.ar    
 152 C152           6.9966    -3.8542     7.2829 C.ar    
 153 C153           7.0819    -3.1570     6.0923 C.ar    
 154 H154           2.6082    -3.7581     0.5285 H       
 155 H155           1.9792    -2.6995    -0.7568 H       
 156 H156           6.4591    -2.1729     1.0347 H       
 157 H157           7.0613    -2.0593    -0.6342 H       
 158 H158           5.4310     0.2576     0.3015 H       
 159 H159           5.4580    -0.5637    -1.2742 H       
 160 H160           4.8903    -3.4771    -0.2810 H       
 161 H161           4.3202    -2.5526    -1.6905 H       
 162 H162           2.6742    -4.2842    -2.4745 H       
 163 H163           3.4669    -5.3147    -1.2592 H       
 164 H164           1.2394    -5.6080    -0.1314 H       
 165 H165           0.4885    -4.6943    -1.4610 H       
 166 H166           8.5001    -1.5684     2.3940 H       
 167 H167           9.1913    -2.1193     0.8509 H       
 168 H168           8.2027    -0.0120    -0.2055 H       
 169 H169           7.3333     0.2496     1.3239 H       
 170 H170          10.0564     0.4685     0.8659 H       
 171 H171          10.0009     0.1457     2.6138 H       
 172 H172           1.3497    -6.3712    -3.0847 H       
 173 H173           2.0758    -7.2869    -1.7433 H       
 174 H174           3.5423    -2.4899     1.9276 H       
 175 H175          -5.2576    -9.3084    -5.3090 H       
 176 H176          -1.9044    -9.4451    -6.3729 H       
 177 H177          -1.9307   -11.0216    -7.1989 H       
 178 H178          -2.7166    -9.6111    -7.9480 H       
 179 H179          -4.2999   -11.8897    -4.7614 H       
 180 H180          -2.5661   -11.7775    -5.1267 H       
 181 H181          -4.0179    -9.4072    -3.9050 H       
 182 H182          -3.4712   -10.7523    -2.8892 H       
 183 H183          -1.1961   -10.4034    -4.2568 H       
 184 H184          -1.8503    -8.7555    -4.4448 H       
 185 H185          13.5548     9.5703    -1.1511 H       
 186 H186          12.1286     9.2172    -2.1559 H       
 187 H187          11.9197     9.7645    -0.4751 H       
 188 H188          12.2062     2.0173     2.7138 H       
 189 H189          12.7618    -1.1532     4.3242 H       
 190 H190          11.0751    -0.8032     3.9194 H       
 191 H191          13.8003     2.1703     5.2658 H       
 192 H192          14.1072     0.4225     5.4053 H       
 193 H193          14.2779     1.2331     3.8299 H       
 194 H194          12.6201     0.5838     1.9586 H       
 195 H195          13.4052    -0.9860     2.1875 H       
 196 H196          11.2173    -2.1172     1.8924 H       
 197 H197          11.6728    -1.1541     0.4648 H       
 198 H198          -0.2405    -7.4357    -0.7120 H       
 199 H199          -0.8865    -6.7438    -2.2197 H       
 200 H200           0.2946    -8.6313    -3.4649 H       
 201 H201           0.6388    -9.3609    -1.8794 H       
 202 H202          -2.1509    -8.6202    -1.9730 H       
 203 H203          -1.4338   -10.2426    -1.8118 H       
 204 H204          -8.0348   -11.2541    -8.0010 H       
 205 H205          -8.1101   -12.7488    -8.9645 H       
 206 H206          -5.6102   -12.6654    -9.2003 H       
 207 H207          -5.4918    -9.9116    -8.2358 H       
 208 H208          -6.6321   -13.8796    -7.3258 H       
 209 H209          -6.5568   -12.3849    -6.3622 H       
 210 H210          -7.5644   -14.3716    -4.8456 H       
 211 H211          -9.2424   -14.3375    -4.7673 H       
 212 H212          -8.5289   -12.7556   -13.2856 H       
 213 H213          -8.0744   -11.5502   -14.5140 H       
 214 H214          -6.6994   -10.3679   -12.7751 H       
 215 H215          -7.5263   -12.6082   -11.0945 H       
 216 H216          -7.2313   -13.9856   -15.3021 H       
 217 H217          -5.6077   -14.2493   -14.9601 H       
 218 H218          -8.7978    -9.4804   -14.2145 H       
 219 H219         -10.0585    -8.9323   -13.2485 H       
 220 H220           2.3104     2.1496    -0.3952 H       
 221 H221           2.7512     2.4351    -2.0959 H       
 222 H222           0.7800     0.2931    -1.1802 H       
 223 H223           3.4395    -0.4632    -2.1089 H       
 224 H224           1.5979     4.6512    -1.0545 H       
 225 H225          -0.0251     4.7812    -1.4688 H       
 226 H226          -1.2654    -1.3810    -4.8314 H       
 227 H227          -0.7303    -1.0518    -6.4968 H       
 228 H228           0.5751     0.9043    -5.6715 H       
 229 H229          -0.6423     0.7703    -3.0145 H       
 230 H230           1.1855    -1.5347    -4.1761 H       
 231 H231           0.8865    -3.5935    -6.2959 H       
 232 H232           1.0932    -3.7885    -4.5388 H       
 233 H233          -0.5160    -3.4336    -5.2117 H       
 234 H234           1.5324    -1.5483    -7.2087 H       
 235 H235           2.0858    -0.2650    -6.1063 H       
 236 H236           2.8094    -1.8887    -6.0163 H       
 237 H237          -2.5640     2.8021    -8.7709 H       
 238 H238          -3.9495     3.6866    -8.0881 H       
 239 H239          -3.6250     2.4561    -5.9352 H       
 240 H240          -1.5424     0.8987    -7.3627 H       
 241 H241          -3.4162     5.6286    -6.3790 H       
 242 H242          -1.2712     6.7739    -5.6204 H       
 243 H243           1.5611     6.3272    -5.8156 H       
 244 H244           3.1669     4.7246    -6.7506 H       
 245 H245           2.3846     2.7449    -7.9808 H       
 246 H246          -0.0065     2.3350    -8.2765 H       
 247 H247          -5.7942     0.5548   -11.1176 H       
 248 H248          -7.1974    -0.3458   -10.4944 H       
 249 H249          -6.3533     0.0298    -8.1611 H       
 250 H250          -4.2140     1.6619    -9.4769 H       
 251 H251          -8.6467     3.8478   -10.2392 H       
 252 H252         -10.1711     3.6672   -13.9326 H       
 253 H253         -10.0984     5.5603   -11.0330 H       
 254 H254         -10.7315     5.4715   -12.5867 H       
 255 H255          -7.9078     1.6514    -9.2077 H       
 256 H256          -6.5046     2.5520    -9.8309 H       
 257 H257          -8.7332     1.3343   -11.5244 H       
 258 H258          -7.3301     2.2349   -12.1476 H       
 259 H259          -2.5666    -2.2703    -8.3595 H       
 260 H260          -2.9286    -3.1295    -6.8433 H       
 261 H261          -4.3392    -3.7899    -9.4569 H       
 262 H262          -5.7606    -2.1062    -7.5740 H       
 263 H263          -2.3359    -5.2718    -7.8644 H       
 264 H264          -1.7462    -3.6602   -10.3871 H       
 265 H265          -1.5571    -5.4181   -10.1819 H       
 266 H266          -3.1805    -4.6887   -10.1561 H       
 267 H267          -0.4781    -4.0064    -6.9114 H       
 268 H268           0.0805    -4.8024    -8.4023 H       
 269 H269          -0.3030    -3.0643    -8.4114 H       
 270 H270          -3.4119    -7.0961    -5.1473 H       
 271 H271          -4.3383    -5.5793    -5.0511 H       
 272 H272          -6.0931    -6.8337    -6.5329 H       
 273 H273          -4.2676    -8.3868    -7.9073 H       
 274 H274          -5.1970    -8.3560    -4.1461 H       
 275 H275          -4.9959    -5.6533    -2.7419 H       
 276 H276          -5.5281    -7.1765    -1.9903 H       
 277 H277          -3.8511    -7.0043    -2.5617 H       
 278 H278          -6.8671    -5.8128    -4.3898 H       
 279 H279          -7.0554    -7.2774    -5.3836 H       
 280 H280          -7.3993    -7.3359    -3.6382 H       
 281 H281          13.3071     5.2532    -1.1346 H       
 282 H282          12.3803     3.7954    -0.7054 H       
 283 H283          10.4243     5.2496    -0.1333 H       
 284 H284          10.5739     7.4573    -0.8336 H       
 285 H285          10.6537     4.4500    -2.4089 H       
 286 H286          11.6926     5.8138    -2.8877 H       
 287 H287          11.2663     4.1032    -4.9758 H       
 288 H288          12.5098     2.9921    -5.1802 H       
 289 H289          14.4579     4.6436     2.7835 H       
 290 H290          14.3406     3.6250     4.2385 H       
 291 H291          12.4099     5.2365     3.9516 H       
 292 H292          10.8037     3.5825     4.4867 H       
 293 H293          14.8471     2.3390     2.2902 H       
 294 H294           8.9451     2.4226     8.5682 H       
 295 H295          10.5732     2.5559     7.8611 H       
 296 H296           9.6347     0.2521     7.6152 H       
 297 H297           9.6597     1.0312     4.8579 H       
 298 H298           9.6456     3.5549     5.8226 H       
 299 H299           7.9893     3.3307     6.4348 H       
 300 H300           8.3967     5.9415     5.9053 H       
 301 H301           8.7848     6.8267     7.2795 H       
 302 H302           5.8498     2.3643     5.7920 H       
 303 H303           4.9004     0.5578     8.0518 H       
 304 H304           7.3060     0.5403     8.6798 H       
 305 H305           3.5129     3.1840     5.9176 H       
 306 H306           3.5610     1.4494     5.5214 H       
 307 H307           3.1560     1.9741     7.1733 H       
 308 H308           6.4420     3.2011     7.9180 H       
 309 H309           6.0160    -3.0569     3.0971 H       
 310 H310           7.0490    -1.8412     3.8867 H       
 311 H311           4.0312    -1.8121     4.2201 H       
 312 H312           5.3075    -0.1493     2.1615 H       
 313 H313           3.9978    -3.7828     4.8779 H       
 314 H314           3.8485    -5.0309     6.9953 H       
 315 H315           5.7689    -5.0761     8.5358 H       
 316 H316           7.8389    -3.8739     7.9587 H       
 317 H317           7.9911    -2.6328     5.8374 H       
@<TRIPOS>BOND
   1    1    6 1
   2    1    5 1
   3    1  154 1
   4    1  155 1
   5    2    3 1
   6    2    9 1
   7    2  156 1
   8    2  157 1
   9    3    4 1
  10    3  158 1
  11    3  159 1
  12    4    5 1
  13    4   12 1
  14    4   13 1
  15    5  160 1
  16    5  161 1
  17    6    7 1
  18    6  162 1
  19    6  163 1
  20    7   11 1
  21    7  164 1
  22    7  165 1
  23    8    9 1
  24    8   10 1
  25    8  166 1
  26    8  167 1
  27    9  168 1
  28    9  169 1
  29   10   33 1
  30   10  170 1
  31   10  171 1
  32   11   34 1
  33   11  172 1
  34   11  173 1
  35   12   14 2
  36   12   58 am
  37   13  146 1
  38   13  174 1
  39   15   16 1
  40   15  107 1
  41   15  175 1
  42   16   17 1
  43   16   19 1
  44   16   20 1
  45   17   18 2
  46   17   40 am
  47   19  176 1
  48   19  177 1
  49   19  178 1
  50   20   21 1
  51   20  179 1
  52   20  180 1
  53   21   22 1
  54   21  181 1
  55   21  182 1
  56   22   36 1
  57   22  183 1
  58   22  184 1
  59   23   24 1
  60   23  185 1
  61   23  186 1
  62   23  187 1
  63   24   25 2
  64   24  115 am
  65   26   27 1
  66   26  124 1
  67   26  188 1
  68   27   28 1
  69   27   30 1
  70   27   31 1
  71   28   29 2
  72   28  130 am
  73   30   32 1
  74   30  189 1
  75   30  190 1
  76   31  191 1
  77   31  192 1
  78   31  193 1
  79   32   33 1
  80   32  194 1
  81   32  195 1
  82   33  196 1
  83   33  197 1
  84   34   35 1
  85   34  198 1
  86   34  199 1
  87   35   36 1
  88   35  200 1
  89   35  201 1
  90   36  202 1
  91   36  203 1
  92   37   42 1
  93   37   38 1
  94   37  204 1
  95   37  205 1
  96   38   40 1
  97   38   39 1
  98   38  206 1
  99   39   41 2
 100   39   49 am
 101   40  207 1
 102   42   43 1
 103   42  208 1
 104   42  209 1
 105   43   44 2
 106   43   45 am
 107   45  210 1
 108   45  211 1
 109   46   51 1
 110   46   47 1
 111   46  212 1
 112   46  213 1
 113   47   49 1
 114   47   48 1
 115   47  214 1
 116   48   50 2
 117   48   54 am
 118   49  215 1
 119   51   52 am
 120   51   53 2
 121   52  216 1
 122   52  217 1
 123   54  218 1
 124   54  219 1
 125   55   60 1
 126   55   56 1
 127   55  220 1
 128   55  221 1
 129   56   58 1
 130   56   57 1
 131   56  222 1
 132   57   59 2
 133   57   66 am
 134   58  223 1
 135   60   61 am
 136   60   62 2
 137   61  224 1
 138   61  225 1
 139   63   64 1
 140   63   68 1
 141   63  226 1
 142   63  227 1
 143   64   66 1
 144   64   65 1
 145   64  228 1
 146   65   67 2
 147   65   74 am
 148   66  229 1
 149   68   69 1
 150   68   70 1
 151   68  230 1
 152   69  231 1
 153   69  232 1
 154   69  233 1
 155   70  234 1
 156   70  235 1
 157   70  236 1
 158   71   76 1
 159   71   72 1
 160   71  237 1
 161   71  238 1
 162   72   73 1
 163   72   74 1
 164   72  239 1
 165   73   75 2
 166   73   88 am
 167   74  240 1
 168   76   77 2
 169   76   80 1
 170   77   78 1
 171   77  241 1
 172   78   79 1
 173   78  242 1
 174   79   80 ar
 175   79   81 ar
 176   80   84 ar
 177   81   82 ar
 178   81  243 1
 179   82   83 ar
 180   82  244 1
 181   83   84 ar
 182   83  245 1
 183   84  246 1
 184   85   86 1
 185   85   94 1
 186   85  247 1
 187   85  248 1
 188   86   88 1
 189   86   87 1
 190   86  249 1
 191   87   89 2
 192   87   99 am
 193   88  250 1
 194   90   95 1
 195   90   91 1
 196   90  251 1
 197   91   92 2
 198   91   93 1
 199   92  252 1
 200   93  253 1
 201   93  254 1
 202   94   95 1
 203   94  255 1
 204   94  256 1
 205   95  257 1
 206   95  258 1
 207   96  101 1
 208   96   97 1
 209   96  259 1
 210   96  260 1
 211   97   99 1
 212   97   98 1
 213   97  261 1
 214   98  100 2
 215   98  106 1
 216   99  262 1
 217  101  102 1
 218  101  103 1
 219  101  263 1
 220  102  264 1
 221  102  265 1
 222  102  266 1
 223  103  267 1
 224  103  268 1
 225  103  269 1
 226  104  109 1
 227  104  105 1
 228  104  270 1
 229  104  271 1
 230  105  107 1
 231  105  106 1
 232  105  272 1
 233  106  108 2
 234  107  273 1
 235  109  110 1
 236  109  111 1
 237  109  274 1
 238  110  275 1
 239  110  276 1
 240  110  277 1
 241  111  278 1
 242  111  279 1
 243  111  280 1
 244  112  117 1
 245  112  113 1
 246  112  281 1
 247  112  282 1
 248  113  115 1
 249  113  114 1
 250  113  283 1
 251  114  116 2
 252  114  123 1
 253  115  284 1
 254  117  118 1
 255  117  285 1
 256  117  286 1
 257  118  119 2
 258  118  120 am
 259  120  287 1
 260  120  288 1
 261  121  126 1
 262  121  122 1
 263  121  289 1
 264  121  290 1
 265  122  124 1
 266  122  123 1
 267  122  291 1
 268  123  125 2
 269  124  292 1
 270  126  293 1
 271  127  132 1
 272  127  128 1
 273  127  294 1
 274  127  295 1
 275  128  130 1
 276  128  129 1
 277  128  296 1
 278  129  131 2
 279  129  139 am
 280  130  297 1
 281  132  133 1
 282  132  298 1
 283  132  299 1
 284  133  134 2
 285  133  135 am
 286  135  300 1
 287  135  301 1
 288  136  141 1
 289  136  142 1
 290  136  137 1
 291  136  302 1
 292  137  139 1
 293  137  138 1
 294  137  303 1
 295  138  140 2
 296  138  145 1
 297  139  304 1
 298  141  305 1
 299  141  306 1
 300  141  307 1
 301  142  308 1
 302  143  148 1
 303  143  144 1
 304  143  309 1
 305  143  310 1
 306  144  145 1
 307  144  146 1
 308  144  311 1
 309  145  147 2
 310  146  312 1
 311  148  149 ar
 312  148  153 ar
 313  149  150 ar
 314  149  313 1
 315  150  151 ar
 316  150  314 1
 317  151  152 ar
 318  151  315 1
 319  152  153 ar
 320  152  316 1
 321  153  317 1

#	End of record

