#	Name: ASD08151103
#	Creating user name:	WinNT
#	Creation time:	15. 06. 2019 21:17

#	Modifying user name:	WinNT
#	Modification time:	15. 06. 2019 21:17

#	Program:	/corina/corina34_cracker 3.40 0067  02.08.2006

@<TRIPOS>MOLECULE
ASD08151103
  34   36    0    0    0
SMALL
NO_CHARGES


@<TRIPOS>ATOM
   1 N1            -0.5918     1.7785    -0.8511 N.ar    
   2 N2            -0.7585     0.5234    -1.0706 N.ar    
   3 C3             0.2167    -0.3683    -0.9658 C.ar    
   4 C4             1.4793     0.0163    -0.6091 C.ar    
   5 C5             1.6964     1.3848    -0.3613 C.ar    
   6 C6             2.9542     1.8848     0.0103 C.ar    
   7 C7             3.1134     3.2204     0.2391 C.ar    
   8 C8             2.0464     4.1024     0.1104 C.ar    
   9 C9             0.7907     3.6493    -0.2535 C.ar    
  10 C10            0.5964     2.2693    -0.4974 C.ar    
  11 C11           -0.3382     4.5993    -0.3872 C.ar    
  12 C12           -0.3458     5.5362    -1.4201 C.ar    
  13 C13           -1.4020     6.4192    -1.5396 C.ar    
  14 C14           -2.4509     6.3742    -0.6350 C.ar    
  15 C15           -2.4468     5.4466     0.3905 C.ar    
  16 C16           -1.3999     4.5561     0.5159 C.ar    
  17 F17           -1.4118     7.3279    -2.5394 F       
  18 Cl18           4.3040     0.8062     0.1790 Cl      
  19 C19            2.2603     5.5712     0.3713 C.3     
  20 C20            1.9090     5.8872     1.8265 C.3     
  21 N21            3.6631     5.9122     0.1224 N.2     
  22 N22            4.0004     6.9827     0.1822 N.1     
  23 N23            4.3377     8.0533     0.2420 N.pl3   
  24 H24            0.0116    -1.4099    -1.1640 H       
  25 H25            2.2800    -0.7030    -0.5205 H       
  26 H26            4.0838     3.5984     0.5251 H       
  27 H27            0.4720     5.5717    -2.1247 H       
  28 H28           -3.2743     7.0664    -0.7311 H       
  29 H29           -3.2668     5.4163     1.0928 H       
  30 H30           -1.4008     3.8294     1.3149 H       
  31 H31            1.6214     6.1547    -0.2917 H       
  32 H32            1.9769     6.9625     1.9914 H       
  33 H33            0.8937     5.5508     2.0365 H       
  34 H34            2.6062     5.3734     2.4883 H       
@<TRIPOS>BOND
   1    1    2 ar
   2    1   10 ar
   3    2    3 ar
   4    3    4 ar
   5    3   24 1
   6    4    5 ar
   7    4   25 1
   8    5    6 ar
   9    5   10 ar
  10    6    7 ar
  11    6   18 1
  12    7    8 ar
  13    7   26 1
  14    8    9 ar
  15    8   19 1
  16    9   10 ar
  17    9   11 1
  18   11   12 ar
  19   11   16 ar
  20   12   13 ar
  21   12   27 1
  22   13   14 ar
  23   13   17 1
  24   14   15 ar
  25   14   28 1
  26   15   16 ar
  27   15   29 1
  28   16   30 1
  29   19   20 1
  30   19   21 1
  31   19   31 1
  32   20   32 1
  33   20   33 1
  34   20   34 1
  35   21   22 2
  36   22   23 2

#	End of record

