#	Name: ASD01150407
#	Creating user name:	WinNT
#	Creation time:	15. 06. 2019 19:04

#	Modifying user name:	WinNT
#	Modification time:	15. 06. 2019 19:04

#	Program:	/corina/corina34_cracker 3.40 0067  02.08.2006

@<TRIPOS>MOLECULE
ASD01150407
  53   55    0    0    0
SMALL
NO_CHARGES


@<TRIPOS>ATOM
   1 C1             0.3804     1.5257     0.7458 C.ar    
   2 C2             0.4560     0.1761     1.0298 C.ar    
   3 C3             1.2861    -0.6435     0.2891 C.ar    
   4 C4             2.0476    -0.1122    -0.7441 C.ar    
   5 C5             1.9737     1.2431    -1.0324 C.ar    
   6 C6             1.1392     2.0635    -0.2868 C.ar    
   7 N7             1.0618     3.4311    -0.5743 N.am    
   8 C8            -0.1429     4.0149    -0.7032 C.2     
   9 N9            -0.2509     5.3282    -0.9790 N.am    
  10 C10            0.8590     6.0799    -1.1311 C.2     
  11 C11            2.1740     5.4484    -0.9916 C.2     
  12 N12            2.2393     4.1744    -0.7183 N.2     
  13 O13            0.7693     7.2677    -1.3813 O.2     
  14 C14           -1.5745     5.9413    -1.1147 C.3     
  15 O15           -1.1496     3.3465    -0.5689 O.2     
  16 C16           -2.0359     6.4429     0.2294 C.ar    
  17 C17           -1.7344     7.7322     0.6266 C.ar    
  18 C18           -2.1575     8.1924     1.8595 C.ar    
  19 C19           -2.8825     7.3634     2.6951 C.ar    
  20 C20           -3.1848     6.0745     2.2975 C.ar    
  21 C21           -2.7654     5.6157     1.0628 C.ar    
  22 N22            2.8886    -0.9427    -1.4930 N.am    
  23 C23            2.5154    -2.2084    -1.7675 C.2     
  24 O24            1.4908    -2.6543    -1.2960 O.2     
  25 C25            3.3714    -3.0695    -2.6601 C.3     
  26 C26            3.4330     6.2603    -1.1560 C.3     
  27 C27           -3.3430     7.8648     4.0396 C.3     
  28 C28           -4.8702     7.8051     4.1105 C.3     
  29 C29           -2.7466     6.9879     5.1424 C.3     
  30 H30           -0.2724     2.1629     1.3239 H       
  31 H31           -0.1348    -0.2394     1.8328 H       
  32 H32            1.3432    -1.6983     0.5139 H       
  33 H33            2.5650     1.6587    -1.8349 H       
  34 H34           -1.5187     6.7753    -1.8142 H       
  35 H35           -2.2815     5.2005    -1.4882 H       
  36 H36           -1.1680     8.3799    -0.0262 H       
  37 H37           -1.9214     9.1994     2.1701 H       
  38 H38           -3.7509     5.4267     2.9504 H       
  39 H39           -3.0015     4.6087     0.7521 H       
  40 H40            3.7401    -0.6076    -1.8146 H       
  41 H41            4.0998    -3.6090    -2.0547 H       
  42 H42            2.7404    -3.7827    -3.1906 H       
  43 H43            3.8931    -2.4398    -3.3808 H       
  44 H44            3.7314     6.6675    -0.1900 H       
  45 H45            4.2282     5.6232    -1.5431 H       
  46 H46            3.2498     7.0773    -1.8538 H       
  47 H47           -3.0129     8.8946     4.1758 H       
  48 H48           -5.2002     6.7752     3.9742 H       
  49 H49           -5.2032     8.1677     5.0829 H       
  50 H50           -5.2951     8.4298     3.3248 H       
  51 H51           -1.6586     7.0305     5.0919 H       
  52 H52           -3.0796     7.3505     6.1149 H       
  53 H53           -3.0766     5.9581     5.0062 H       
@<TRIPOS>BOND
   1    1    2 ar
   2    1    6 ar
   3    1   30 1
   4    2    3 ar
   5    2   31 1
   6    3    4 ar
   7    3   32 1
   8    4    5 ar
   9    4   22 1
  10    5    6 ar
  11    5   33 1
  12    6    7 1
  13    7    8 am
  14    7   12 1
  15    8    9 am
  16    8   15 2
  17    9   10 am
  18    9   14 1
  19   10   11 1
  20   10   13 2
  21   11   12 2
  22   11   26 1
  23   14   16 1
  24   14   34 1
  25   14   35 1
  26   16   17 ar
  27   16   21 ar
  28   17   18 ar
  29   17   36 1
  30   18   19 ar
  31   18   37 1
  32   19   20 ar
  33   19   27 1
  34   20   21 ar
  35   20   38 1
  36   21   39 1
  37   22   23 am
  38   22   40 1
  39   23   24 2
  40   23   25 1
  41   25   41 1
  42   25   42 1
  43   25   43 1
  44   26   44 1
  45   26   45 1
  46   26   46 1
  47   27   28 1
  48   27   29 1
  49   27   47 1
  50   28   48 1
  51   28   49 1
  52   28   50 1
  53   29   51 1
  54   29   52 1
  55   29   53 1

#	End of record

