#	Name: ASD03540057
#	Creating user name:	WinNT
#	Creation time:	15. 06. 2019 20:42

#	Modifying user name:	WinNT
#	Modification time:	15. 06. 2019 20:42

#	Program:	/corina/corina34_cracker 3.40 0067  02.08.2006

@<TRIPOS>MOLECULE
ASD03540057
  51   53    0    0    0
SMALL
NO_CHARGES


@<TRIPOS>ATOM
   1 C1            -0.0180     1.4730     0.0101 C.2     
   2 C2             0.0021    -0.0041     0.0020 C.ar    
   3 C3             1.2188    -0.6888    -0.0133 C.ar    
   4 C4             1.2303    -2.0682    -0.0203 C.ar    
   5 C5             0.0396    -2.7731    -0.0127 C.ar    
   6 C6            -1.1697    -2.1009     0.0020 C.ar    
   7 C7            -1.1956    -0.7217     0.0154 C.ar    
   8 O8             1.0256     2.0946     0.0035 O.2     
   9 O9            -1.1936     2.1307     0.0193 O.3     
  10 C10            0.0601    -4.2800    -0.0210 C.3     
  11 C11           -1.0822    -5.0135     1.9856 C.2     
  12 N12           -1.1328    -5.4690     3.2490 N.am    
  13 C13            0.0038    -5.7051     3.9376 C.2     
  14 C14            1.2943    -5.4528     3.2728 C.2     
  15 C15            1.2749    -4.9847     1.9711 C.2     
  16 N16            0.0799    -4.7757     1.3575 N.am    
  17 O17           -0.0364    -6.1167     5.0818 O.2     
  18 O18           -2.1233    -4.8150     1.3904 O.2     
  19 C19            2.5322    -5.6848     3.9543 C.1     
  20 C20            3.5470    -5.8751     4.5130 C.1     
  21 C21            4.7849    -6.1071     5.1944 C.2     
  22 N22            5.9541    -5.8696     4.5675 N.am    
  23 O23            4.7812    -6.5189     6.3403 O.2     
  24 C24            7.2206    -6.1070     5.2646 C.3     
  25 C25            8.3689    -5.7665     4.3501 C.ar    
  26 C26            8.8832    -4.4842     4.3360 C.ar    
  27 C27            9.9402    -4.1713     3.4941 C.ar    
  28 C28           10.4784    -5.1476     2.6679 C.ar    
  29 C29            9.9607    -6.4280     2.6857 C.ar    
  30 C30            8.9106    -6.7387     3.5302 C.ar    
  31 O31           10.4476    -2.9107     3.4780 O.3     
  32 C32           11.5357    -2.6605     2.5861 C.3     
  33 H33            2.1488    -0.1398    -0.0199 H       
  34 H34            2.1707    -2.5992    -0.0321 H       
  35 H35           -2.0953    -2.6572     0.0071 H       
  36 H36           -2.1401    -0.1983     0.0318 H       
  37 H37           -1.1561     3.0969     0.0244 H       
  38 H38           -0.8298    -4.6526    -0.5283 H       
  39 H39            0.9499    -4.6284    -0.5452 H       
  40 H40           -1.9923    -5.6289     3.6691 H       
  41 H41            2.1990    -4.7868     1.4483 H       
  42 H42            5.9571    -5.5416     3.6546 H       
  43 H43            7.2677    -5.4810     6.1557 H       
  44 H44            7.2851    -7.1560     5.5537 H       
  45 H45            8.4624    -3.7259     4.9798 H       
  46 H46           11.3012    -4.9064     2.0112 H       
  47 H47           10.3791    -7.1881     2.0426 H       
  48 H48            8.5103    -7.7417     3.5461 H       
  49 H49           11.8442    -1.6187     2.6726 H       
  50 H50           12.3727    -3.3098     2.8430 H       
  51 H51           11.2202    -2.8623     1.5625 H       
@<TRIPOS>BOND
   1    1    2 1
   2    1    8 2
   3    1    9 1
   4    2    3 ar
   5    2    7 ar
   6    3    4 ar
   7    3   33 1
   8    4    5 ar
   9    4   34 1
  10    5    6 ar
  11    5   10 1
  12    6    7 ar
  13    6   35 1
  14    7   36 1
  15    9   37 1
  16   10   16 1
  17   10   38 1
  18   10   39 1
  19   11   12 am
  20   11   16 am
  21   11   18 2
  22   12   13 am
  23   12   40 1
  24   13   14 1
  25   13   17 2
  26   14   15 2
  27   14   19 1
  28   15   16 1
  29   15   41 1
  30   19   20 3
  31   20   21 1
  32   21   22 am
  33   21   23 2
  34   22   24 1
  35   22   42 1
  36   24   25 1
  37   24   43 1
  38   24   44 1
  39   25   26 ar
  40   25   30 ar
  41   26   27 ar
  42   26   45 1
  43   27   28 ar
  44   27   31 1
  45   28   29 ar
  46   28   46 1
  47   29   30 ar
  48   29   47 1
  49   30   48 1
  50   31   32 1
  51   32   49 1
  52   32   50 1
  53   32   51 1

#	End of record

