#	Name: ASD00460008
#	Creating user name:	WinNT
#	Creation time:	15. 06. 2019 18:36

#	Modifying user name:	WinNT
#	Modification time:	15. 06. 2019 18:36

#	Program:	/corina/corina34_cracker 3.40 0067  02.08.2006

@<TRIPOS>MOLECULE
ASD00460008
  75   80    0    0    0
SMALL
NO_CHARGES


@<TRIPOS>ATOM
   1 C1             0.0433     0.9186    -1.0102 C.ar    
   2 C2             0.1478    -0.4496    -1.1779 C.ar    
   3 C3             1.3792    -1.0253    -1.4323 C.ar    
   4 C4             2.5080    -0.2341    -1.5193 C.ar    
   5 C5             2.4057     1.1394    -1.3518 C.ar    
   6 C6             1.1694     1.7145    -1.0967 C.ar    
   7 O7             3.5150     1.9200    -1.4365 O.3     
   8 C8             3.3346     3.3257    -1.2534 C.3     
   9 C9             4.6845     4.0342    -1.3831 C.3     
  10 C10            4.4748     5.5481    -1.3115 C.3     
  11 N11            5.7521     6.2314    -1.5554 N.3     
  12 C12            5.5889     7.6900    -1.4942 C.3     
  13 C13            6.9373     8.3653    -1.7526 C.3     
  14 C14            7.4777     7.9211    -3.1133 C.3     
  15 C15            8.7754     8.6803    -3.4627 C.3     
  16 C16            9.6335     7.6776    -4.2040 C.ar    
  17 C17            9.1625     6.3988    -3.9736 C.ar    
  18 C18            7.9557     6.4545    -3.0616 C.3     
  19 C19           10.7393     7.8692    -5.0157 C.ar    
  20 C20           11.3718     6.7870    -5.5953 C.ar    
  21 C21           10.9007     5.5077    -5.3648 C.ar    
  22 C22            9.7985     5.3147    -4.5554 C.ar    
  23 O23            5.5434     3.6213    -0.3183 O.3     
  24 C24            4.5832     8.1357    -2.5576 C.3     
  25 C25            5.0763     8.0881    -0.1087 C.3     
  26 C26            1.4896    -2.5172    -1.6141 C.3     
  27 C27            1.5015    -2.8806    -3.1304 C.3     
  28 C28            2.5568    -1.9171    -3.7544 C.3     
  29 C29            3.9150    -2.4261    -3.2199 C.3     
  30 C30            3.5525    -3.6491    -2.3233 C.3     
  31 C31            2.8478    -3.0262    -1.0796 C.3     
  32 C32            2.3154    -4.2223    -3.1008 C.3     
  33 C33            3.5831    -2.5292    -4.7099 C.3     
  34 C34            4.3026    -1.5942    -5.6477 C.2     
  35 O35            4.0594    -0.4109    -5.6253 O.2     
  36 O36            5.2135    -2.0761    -6.5078 O.3     
  37 H37           -0.9201     1.3663    -0.8157 H       
  38 H38           -0.7336    -1.0700    -1.1099 H       
  39 H39            3.4696    -0.6843    -1.7173 H       
  40 H40            1.0871     2.7834    -0.9662 H       
  41 H41            2.6503     3.7060    -2.0117 H       
  42 H42            2.9198     3.5128    -0.2629 H       
  43 H43            5.1403     3.7753    -2.3388 H       
  44 H44            3.7506     5.8507    -2.0678 H       
  45 H45            4.1019     5.8168    -0.3232 H       
  46 H46            6.4590     5.9191    -0.9066 H       
  47 H47            6.8083     9.4476    -1.7486 H       
  48 H48            7.6419     8.0805    -0.9713 H       
  49 H49            6.7264     8.0598    -3.8908 H       
  50 H50            8.5534     9.5343    -4.1025 H       
  51 H51            9.2780     9.0087    -2.5529 H       
  52 H52            8.2378     6.1842    -2.0441 H       
  53 H53            7.1740     5.7888    -3.4277 H       
  54 H54           11.1079     8.8681    -5.1962 H       
  55 H55           12.2334     6.9398    -6.2283 H       
  56 H56           11.3940     4.6603    -5.8174 H       
  57 H57            9.4311     4.3151    -4.3758 H       
  58 H58            5.2003     3.8205     0.5635 H       
  59 H59            3.5939     7.7546    -2.3044 H       
  60 H60            4.5541     9.2247    -2.5964 H       
  61 H61            4.8852     7.7455    -3.5295 H       
  62 H62            5.7928     7.7706     0.6489 H       
  63 H63            4.9553     9.1704    -0.0633 H       
  64 H64            4.1157     7.6070     0.0754 H       
  65 H65            0.6668    -3.0228    -1.1087 H       
  66 H66            0.5291    -2.9051    -3.6222 H       
  67 H67            2.3099    -0.8570    -3.8125 H       
  68 H68            4.6980    -1.7520    -2.8727 H       
  69 H69            4.3661    -4.3430    -2.1121 H       
  70 H70            3.4357    -2.1973    -0.6853 H       
  71 H71            2.6939    -3.7836    -0.3110 H       
  72 H72            1.8015    -4.9997    -2.5354 H       
  73 H73            2.5827    -4.5604    -4.1020 H       
  74 H74            3.3688    -3.5205    -5.1092 H       
  75 H75            5.6488    -1.4379    -7.0894 H       
@<TRIPOS>BOND
   1    1    2 ar
   2    1    6 ar
   3    1   37 1
   4    2    3 ar
   5    2   38 1
   6    3    4 ar
   7    3   26 1
   8    4    5 ar
   9    4   39 1
  10    5    6 ar
  11    5    7 1
  12    6   40 1
  13    7    8 1
  14    8    9 1
  15    8   41 1
  16    8   42 1
  17    9   10 1
  18    9   23 1
  19    9   43 1
  20   10   11 1
  21   10   44 1
  22   10   45 1
  23   11   12 1
  24   11   46 1
  25   12   13 1
  26   12   24 1
  27   12   25 1
  28   13   14 1
  29   13   47 1
  30   13   48 1
  31   14   15 1
  32   14   18 1
  33   14   49 1
  34   15   16 1
  35   15   50 1
  36   15   51 1
  37   16   17 ar
  38   16   19 ar
  39   17   18 1
  40   17   22 ar
  41   18   52 1
  42   18   53 1
  43   19   20 ar
  44   19   54 1
  45   20   21 ar
  46   20   55 1
  47   21   22 ar
  48   21   56 1
  49   22   57 1
  50   23   58 1
  51   24   59 1
  52   24   60 1
  53   24   61 1
  54   25   62 1
  55   25   63 1
  56   25   64 1
  57   26   27 1
  58   26   31 1
  59   26   65 1
  60   27   28 1
  61   27   32 1
  62   27   66 1
  63   28   29 1
  64   28   33 1
  65   28   67 1
  66   29   30 1
  67   29   33 1
  68   29   68 1
  69   30   31 1
  70   30   32 1
  71   30   69 1
  72   31   70 1
  73   31   71 1
  74   32   72 1
  75   32   73 1
  76   33   34 1
  77   33   74 1
  78   34   35 2
  79   34   36 1
  80   36   75 1

#	End of record

