#	Name: ASD01913365
#	Creating user name:	WinNT
#	Creation time:	15. 06. 2019 20:01

#	Modifying user name:	WinNT
#	Modification time:	15. 06. 2019 20:01

#	Program:	/corina/corina34_cracker 3.40 0067  02.08.2006

@<TRIPOS>MOLECULE
ASD01913365
  38   40    0    0    0
SMALL
NO_CHARGES


@<TRIPOS>ATOM
   1 C1            -0.0166     1.3765     0.0096 C.2     
   2 C2             0.0021    -0.0041     0.0020 C.2     
   3 C3             1.2499    -0.6727    -0.0135 C.2     
   4 N4             2.3635     0.0159    -0.0200 N.2     
   5 C5             2.3515     1.3566    -0.0127 C.2     
   6 N6             1.1687     2.0507     0.0019 N.pl3   
   7 C7             3.3713     2.2994    -0.0170 C.2     
   8 C8             2.7833     3.5556    -0.0048 C.2     
   9 N9             1.4769     3.4160     0.0065 N.2     
  10 C10           -1.2215    -0.7480     0.0102 C.1     
  11 C11           -2.2246    -1.3579     0.0169 C.1     
  12 C12           -3.4482    -2.1018     0.0250 C.ar    
  13 C13           -3.4205    -3.5007     0.0172 C.ar    
  14 C14           -4.6052    -4.2118     0.0257 C.ar    
  15 C15           -5.8515    -2.1584     0.0549 C.ar    
  16 C16           -4.6755    -1.4343     0.0466 C.ar    
  17 C17           -5.8162    -3.5441     0.0418 C.ar    
  18 C18            3.5233     4.8684    -0.0045 C.3     
  19 C19            4.0862     5.1369    -1.4016 C.3     
  20 C20            2.5635     5.9949     0.3838 C.3     
  21 C21            4.6716     4.8064     1.0047 C.3     
  22 F22           -2.2384    -4.1545     0.0011 F       
  23 F23           -7.0391    -1.5147     0.0762 F       
  24 H24           -0.9539     1.9131     0.0170 H       
  25 H25            1.2833    -1.7522    -0.0196 H       
  26 H26            4.4311     2.0918    -0.0273 H       
  27 H27           -4.5854    -5.2916     0.0193 H       
  28 H28           -4.7044    -0.3547     0.0572 H       
  29 H29           -6.7391    -4.1052     0.0483 H       
  30 H30            3.2681     5.1811    -2.1206 H       
  31 H31            4.6214     6.0865    -1.4014 H       
  32 H32            4.7700     4.3344    -1.6782 H       
  33 H33            2.1625     5.8036     1.3791 H       
  34 H34            3.0987     6.9444     0.3840 H       
  35 H35            1.7454     6.0391    -0.3352 H       
  36 H36            5.3555     4.0039     0.7281 H       
  37 H37            5.2069     5.7559     1.0049 H       
  38 H38            4.2706     4.6151     2.0000 H       
@<TRIPOS>BOND
   1    1    2 2
   2    1    6 1
   3    1   24 1
   4    2    3 1
   5    2   10 1
   6    3    4 2
   7    3   25 1
   8    4    5 1
   9    5    6 1
  10    5    7 2
  11    6    9 1
  12    7    8 1
  13    7   26 1
  14    8    9 2
  15    8   18 1
  16   10   11 3
  17   11   12 1
  18   12   13 ar
  19   12   16 ar
  20   13   14 ar
  21   13   22 1
  22   14   17 ar
  23   14   27 1
  24   15   16 ar
  25   15   23 1
  26   15   17 ar
  27   16   28 1
  28   17   29 1
  29   18   19 1
  30   18   20 1
  31   18   21 1
  32   19   30 1
  33   19   31 1
  34   19   32 1
  35   20   33 1
  36   20   34 1
  37   20   35 1
  38   21   36 1
  39   21   37 1
  40   21   38 1

#	End of record

