#	Name: ASD01881973
#	Creating user name:	WinNT
#	Creation time:	15. 06. 2019 19:43

#	Modifying user name:	WinNT
#	Modification time:	15. 06. 2019 19:43

#	Program:	/corina/corina34_cracker 3.40 0067  02.08.2006

@<TRIPOS>MOLECULE
ASD01881973
  49   53    0    0    0
SMALL
NO_CHARGES


@<TRIPOS>ATOM
   1 C1            -0.0161     1.3337     0.0094 C.2     
   2 N2             0.0021    -0.0041     0.0020 N.am    
   3 C3             1.2613    -0.4841    -0.0126 C.2     
   4 C4             2.1640     0.7337    -0.0147 C.3     
   5 N5             1.2200     1.8645     0.0004 N.am    
   6 O6            -1.0354     1.9955     0.0180 O.2     
   7 O7             1.6013    -1.6477    -0.0215 O.2     
   8 C8             1.5609     3.2893     0.0041 C.3     
   9 C9            -1.1986    -0.8435     0.0097 C.3     
  10 C10           -1.6247    -1.1237    -1.4083 C.ar    
  11 C11           -1.1323    -2.2349    -2.0689 C.ar    
  12 C12           -1.5190    -2.4965    -3.3676 C.ar    
  13 C13           -2.4077    -1.6384    -4.0136 C.ar    
  14 C14           -2.9006    -0.5202    -3.3429 C.ar    
  15 C15           -2.5112    -0.2718    -2.0425 C.ar    
  16 C16           -4.1926    -2.4478    -9.3767 C.2     
  17 N17           -5.0100    -1.3943    -9.5452 N.am    
  18 C18           -5.0237    -0.6045    -8.3088 C.3     
  19 C19           -4.1017    -1.3115    -7.3465 C.ar    
  20 C20           -3.7166    -1.0533    -6.0543 C.ar    
  21 C21           -2.8266    -1.9139    -5.4091 C.ar    
  22 C22           -2.3314    -3.0332    -6.0789 C.ar    
  23 C23           -2.7176    -3.2918    -7.3743 C.ar    
  24 C24           -3.6087    -2.4317    -8.0227 C.ar    
  25 O25           -3.9704    -3.2960   -10.2188 O.2     
  26 C26           -5.7629    -1.0851   -10.7633 C.3     
  27 C27           -4.9642    -0.8502   -12.0470 C.3     
  28 C28           -5.7730    -2.1374   -11.8739 C.3     
  29 H29            2.7924     0.7467     0.8759 H       
  30 H30            2.7753     0.7564    -0.9169 H       
  31 H31            0.6460     3.8817     0.0159 H       
  32 H32            2.1538     3.5187     0.8895 H       
  33 H33            2.1365     3.5274    -0.8904 H       
  34 H34           -0.9813    -1.7838     0.5163 H       
  35 H35           -2.0010    -0.3250     0.5345 H       
  36 H36           -0.4437    -2.8988    -1.5675 H       
  37 H37           -1.1337    -3.3642    -3.8825 H       
  38 H38           -3.5892     0.1480    -3.8385 H       
  39 H39           -2.8961     0.5917    -1.5202 H       
  40 H40           -4.6592     0.4040    -8.5044 H       
  41 H41           -6.0334    -0.5657    -7.9001 H       
  42 H42           -4.1016    -0.1864    -5.5378 H       
  43 H43           -1.6426    -3.6984    -5.5795 H       
  44 H44           -2.3320    -4.1589    -7.8900 H       
  45 H45           -6.6687    -0.4961   -10.6193 H       
  46 H46           -5.3447    -0.1071   -12.7477 H       
  47 H47           -3.8785    -0.9258   -11.9852 H       
  48 H48           -5.2194    -3.0598   -11.6982 H       
  49 H49           -6.6856    -2.2411   -12.4608 H       
@<TRIPOS>BOND
   1    1    2 am
   2    1    5 am
   3    1    6 2
   4    2    3 am
   5    2    9 1
   6    3    4 1
   7    3    7 2
   8    4    5 1
   9    4   29 1
  10    4   30 1
  11    5    8 1
  12    8   31 1
  13    8   32 1
  14    8   33 1
  15    9   10 1
  16    9   34 1
  17    9   35 1
  18   10   11 ar
  19   10   15 ar
  20   11   12 ar
  21   11   36 1
  22   12   13 ar
  23   12   37 1
  24   13   14 ar
  25   13   21 1
  26   14   15 ar
  27   14   38 1
  28   15   39 1
  29   16   17 am
  30   16   24 1
  31   16   25 2
  32   17   18 1
  33   17   26 1
  34   18   19 1
  35   18   40 1
  36   18   41 1
  37   19   20 ar
  38   19   24 ar
  39   20   21 ar
  40   20   42 1
  41   21   22 ar
  42   22   23 ar
  43   22   43 1
  44   23   24 ar
  45   23   44 1
  46   26   27 1
  47   26   28 1
  48   26   45 1
  49   27   28 1
  50   27   46 1
  51   27   47 1
  52   28   48 1
  53   28   49 1

#	End of record

