#	Name: ASD03730471
#	Creating user name:	WinNT
#	Creation time:	15. 06. 2019 20:44

#	Modifying user name:	WinNT
#	Modification time:	15. 06. 2019 20:44

#	Program:	/corina/corina34_cracker 3.40 0067  02.08.2006

@<TRIPOS>MOLECULE
ASD03730471
  54   58    0    0    0
SMALL
NO_CHARGES


@<TRIPOS>ATOM
   1 C1            -0.0184     1.5028     0.0103 C.2     
   2 C2             0.0021    -0.0041     0.0020 C.3     
   3 O3             1.0236     2.1234     0.0037 O.2     
   4 N4            -1.1946     2.1607     0.0195 N.am    
   5 C5            -1.2145     3.6256     0.0275 C.3     
   6 C6            -2.6637     4.1159     0.0371 C.3     
   7 C7            -2.6845     5.6457     0.0455 C.3     
   8 C8            -4.1337     6.1361     0.0550 C.3     
   9 C9            -4.1545     7.6659     0.0634 C.3     
  10 O10            6.2459     2.8794     2.0976 O.3     
  11 C11            7.6663     2.8233     2.3260 C.3     
  12 O12            7.8789     1.4934     2.8350 O.3     
  13 C13            6.8679     0.7368     2.3152 C.ar    
  14 C14            5.8636     1.5896     1.8629 C.ar    
  15 C15            6.7212    -0.6329     2.1884 C.ar    
  16 C16            5.5735    -1.1688     1.6121 C.ar    
  17 C17            4.5736    -0.3071     1.1716 C.ar    
  18 C18            4.7194     1.0592     1.2910 C.ar    
  19 O19            5.2412    -2.4710     1.3795 O.3     
  20 C20            3.4673    -1.1739     0.6323 C.3     
  21 C21            3.8195    -2.5682     1.1684 C.3     
  22 N22            1.3897    -0.4735    -0.0138 N.am    
  23 C23            2.1130    -0.7212     1.0965 C.2     
  24 C24            3.4026    -1.1504    -0.8661 C.ar    
  25 C25            4.3041    -1.4527    -1.8622 C.ar    
  26 C26            3.9367    -1.3289    -3.1903 C.ar    
  27 C27            2.6624    -0.9003    -3.5148 C.ar    
  28 C28            1.7562    -0.5954    -2.5207 C.ar    
  29 C29            2.1172    -0.7175    -1.1811 C.ar    
  30 O30            1.7424    -0.6020     2.2452 O.2     
  31 H31           -0.4983    -0.3791     0.8948 H       
  32 H32           -0.5153    -0.3696    -0.8850 H       
  33 H33           -2.0280     1.6644     0.0207 H       
  34 H34           -0.7014     3.9910     0.9171 H       
  35 H35           -0.7098     4.0007    -0.8628 H       
  36 H36           -3.1768     3.7505    -0.8525 H       
  37 H37           -3.1683     3.7408     0.9274 H       
  38 H38           -2.1714     6.0112     0.9350 H       
  39 H39           -2.1798     6.0209    -0.8449 H       
  40 H40           -4.6468     5.7706    -0.8346 H       
  41 H41           -4.6384     5.7610     0.9454 H       
  42 H42           -3.6414     8.0314     0.9530 H       
  43 H43           -3.6499     8.0410    -0.8269 H       
  44 H44           -5.1870     8.0152     0.0702 H       
  45 H45            8.2103     2.9676     1.3925 H       
  46 H46            7.9653     3.5680     3.0637 H       
  47 H47            7.5027    -1.2907     2.5390 H       
  48 H48            3.9391     1.7171     0.9379 H       
  49 H49            3.5894    -3.3363     0.4301 H       
  50 H50            3.3012    -2.7643     2.1070 H       
  51 H51            5.2987    -1.7870    -1.6065 H       
  52 H52            4.6432    -1.5667    -3.9717 H       
  53 H53            2.3756    -0.8035    -4.5515 H       
  54 H54            0.7631    -0.2608    -2.7820 H       
@<TRIPOS>BOND
   1    1    2 1
   2    1    3 2
   3    1    4 am
   4    2   22 1
   5    2   31 1
   6    2   32 1
   7    4    5 1
   8    4   33 1
   9    5    6 1
  10    5   34 1
  11    5   35 1
  12    6    7 1
  13    6   36 1
  14    6   37 1
  15    7    8 1
  16    7   38 1
  17    7   39 1
  18    8    9 1
  19    8   40 1
  20    8   41 1
  21    9   42 1
  22    9   43 1
  23    9   44 1
  24   10   11 1
  25   10   14 1
  26   11   12 1
  27   11   45 1
  28   11   46 1
  29   12   13 1
  30   13   14 ar
  31   13   15 ar
  32   14   18 ar
  33   15   16 ar
  34   15   47 1
  35   16   17 ar
  36   16   19 1
  37   17   18 ar
  38   17   20 1
  39   18   48 1
  40   19   21 1
  41   20   21 1
  42   20   23 1
  43   20   24 1
  44   21   49 1
  45   21   50 1
  46   22   23 am
  47   22   29 1
  48   23   30 2
  49   24   25 ar
  50   24   29 ar
  51   25   26 ar
  52   25   51 1
  53   26   27 ar
  54   26   52 1
  55   27   28 ar
  56   27   53 1
  57   28   29 ar
  58   28   54 1

#	End of record

