#	Name: ASD01911120
#	Creating user name:	WinNT
#	Creation time:	15. 06. 2019 19:57

#	Modifying user name:	WinNT
#	Modification time:	15. 06. 2019 19:57

#	Program:	/corina/corina34_cracker 3.40 0067  02.08.2006

@<TRIPOS>MOLECULE
ASD01911120
  42   45    0    0    0
SMALL
NO_CHARGES


@<TRIPOS>ATOM
   1 C1             0.1679     0.9753     0.3007 C.2     
   2 O2             0.0599    -0.1725    -0.0887 O.2     
   3 C3             3.0261     3.1911     0.1320 C.2     
   4 N4             1.6935     3.0120     0.1661 N.pl3   
   5 C5             1.4694     1.6509     0.2413 C.2     
   6 C6             2.7012     1.0590     0.2492 C.2     
   7 N7             3.6176     2.0249     0.1818 N.2     
   8 N8            -0.9088     1.6279     0.7815 N.am    
   9 C9            -2.2444     1.0192     0.7152 C.3     
  10 C10           -3.1994     1.9994     0.0268 C.3     
  11 C11           -3.1571     3.3441     0.7564 C.3     
  12 C12           -1.7409     3.9199     0.6865 C.3     
  13 C13           -0.7685     2.9590     1.3874 C.3     
  14 O14           -5.3075     1.1540     1.1642 O.3     
  15 N15           -6.4000     0.7304     0.8511 N.2     
  16 C16           -6.5171     0.7053    -0.4481 C.2     
  17 N17           -5.3594     1.1678    -0.9635 N.2     
  18 C18           -4.6016     1.4486     0.0683 C.2     
  19 O19           -7.6010     0.2908    -1.1500 O.3     
  20 C20           -8.6430    -0.2417    -0.4590 C.ar    
  21 C21           -8.6421    -0.2164     0.9280 C.ar    
  22 C22           -9.7042    -0.7593     1.6287 C.ar    
  23 C23          -10.7669    -1.3273     0.9455 C.ar    
  24 C24          -10.7681    -1.3526    -0.4363 C.ar    
  25 C25           -9.7119    -0.8063    -1.1400 C.ar    
  26 F26           -9.7047    -0.7359     2.9795 F       
  27 H27            3.5279     4.1453     0.0688 H       
  28 H28            1.0175     3.7073     0.1428 H       
  29 H29            2.8972    -0.0018     0.3014 H       
  30 H30           -2.1959     0.0931     0.1423 H       
  31 H31           -2.6008     0.8092     1.7237 H       
  32 H32           -2.8931     2.1383    -1.0100 H       
  33 H33           -3.8541     4.0359     0.2835 H       
  34 H34           -3.4396     3.2004     1.7993 H       
  35 H35           -1.4483     4.0406    -0.3566 H       
  36 H36           -1.7168     4.8884     1.1860 H       
  37 H37           -1.0069     2.9040     2.4496 H       
  38 H38            0.2542     3.3133     1.2583 H       
  39 H39           -7.8130     0.2263     1.4601 H       
  40 H40          -11.5955    -1.7512     1.4934 H       
  41 H41          -11.5978    -1.7960    -0.9669 H       
  42 H42           -9.7163    -0.8225    -2.2198 H       
@<TRIPOS>BOND
   1    1    2 2
   2    1    5 1
   3    1    8 am
   4    3    4 1
   5    3    7 2
   6    3   27 1
   7    4    5 1
   8    4   28 1
   9    5    6 2
  10    6    7 1
  11    6   29 1
  12    8    9 1
  13    8   13 1
  14    9   10 1
  15    9   30 1
  16    9   31 1
  17   10   11 1
  18   10   18 1
  19   10   32 1
  20   11   12 1
  21   11   33 1
  22   11   34 1
  23   12   13 1
  24   12   35 1
  25   12   36 1
  26   13   37 1
  27   13   38 1
  28   14   15 1
  29   14   18 1
  30   15   16 2
  31   16   17 1
  32   16   19 1
  33   17   18 2
  34   19   20 1
  35   20   21 ar
  36   20   25 ar
  37   21   22 ar
  38   21   39 1
  39   22   23 ar
  40   22   26 1
  41   23   24 ar
  42   23   40 1
  43   24   25 ar
  44   24   41 1
  45   25   42 1

#	End of record

