#	Name: ASD01881573
#	Creating user name:	WinNT
#	Creation time:	15. 06. 2019 19:42

#	Modifying user name:	WinNT
#	Modification time:	15. 06. 2019 19:42

#	Program:	/corina/corina34_cracker 3.40 0067  02.08.2006

@<TRIPOS>MOLECULE
ASD01881573
  33   34    0    0    0
SMALL
NO_CHARGES


@<TRIPOS>ATOM
   1 N1            -0.0154     1.2839     0.0091 N.pl3   
   2 N2             0.0021    -0.0041     0.0020 N.2     
   3 N3             1.2033    -0.4649    -0.0119 N.2     
   4 C4             2.0741     0.5645    -0.0147 C.ar    
   5 C5             1.2843     1.7298    -0.0009 C.ar    
   6 C6             3.4670     0.6759    -0.0271 C.ar    
   7 C7             4.0484     1.9285    -0.0255 C.ar    
   8 C8             3.2560     3.0739    -0.0118 C.ar    
   9 C9             1.8924     2.9784    -0.0004 C.ar    
  10 O10            5.4033     2.0444    -0.0370 O.3     
  11 C11           -1.2133     2.1272     0.0196 C.3     
  12 C12           -2.0520     1.8374    -1.2268 C.3     
  13 C13           -2.4654     0.3643    -1.2321 C.3     
  14 C14           -3.3031     2.7181    -1.2158 C.3     
  15 C15           -1.2263     2.1399    -2.4788 C.3     
  16 C16           -2.0390     1.8247     1.2717 C.3     
  17 Br17           4.5472    -0.8761    -0.0451 Br      
  18 H18            3.7236     4.0474    -0.0103 H       
  19 H19            1.2882     3.8735     0.0099 H       
  20 H20            5.7872     2.0827    -0.9237 H       
  21 H21           -0.9188     3.1767     0.0234 H       
  22 H22           -3.0536     0.1488    -0.3401 H       
  23 H23           -3.0629     0.1578    -2.1200 H       
  24 H24           -1.5741    -0.2631    -1.2399 H       
  25 H25           -3.0086     3.7676    -1.2120 H       
  26 H26           -3.9006     2.5116    -2.1037 H       
  27 H27           -3.8913     2.5026    -0.3238 H       
  28 H28           -0.3350     1.5125    -2.4866 H       
  29 H29           -1.8238     1.9334    -3.3667 H       
  30 H30           -0.9318     3.1894    -2.4750 H       
  31 H31           -2.9303     2.4521     1.2795 H       
  32 H32           -2.3335     0.7752     1.2679 H       
  33 H33           -1.4415     2.0312     2.1596 H       
@<TRIPOS>BOND
   1    1    2 1
   2    1    5 1
   3    1   11 1
   4    2    3 2
   5    3    4 1
   6    4    5 ar
   7    4    6 ar
   8    5    9 ar
   9    6    7 ar
  10    6   17 1
  11    7    8 ar
  12    7   10 1
  13    8    9 ar
  14    8   18 1
  15    9   19 1
  16   10   20 1
  17   11   12 1
  18   11   16 1
  19   11   21 1
  20   12   13 1
  21   12   14 1
  22   12   15 1
  23   13   22 1
  24   13   23 1
  25   13   24 1
  26   14   25 1
  27   14   26 1
  28   14   27 1
  29   15   28 1
  30   15   29 1
  31   15   30 1
  32   16   31 1
  33   16   32 1
  34   16   33 1

#	End of record

