#	Name: ASD02198373
#	Creating user name:	WinNT
#	Creation time:	15. 06. 2019 20:19

#	Modifying user name:	WinNT
#	Modification time:	15. 06. 2019 20:19

#	Program:	/corina/corina34_cracker 3.40 0067  02.08.2006

@<TRIPOS>MOLECULE
ASD02198373
  34   36    0    0    0
SMALL
NO_CHARGES


@<TRIPOS>ATOM
   1 C1            -0.0154     1.3806    -0.0470 C.2     
   2 C2             0.0106     0.0008    -0.0192 C.2     
   3 S3             1.6474     1.9452    -0.1885 S.3     
   4 C4             2.2117     0.3324    -0.1975 C.2     
   5 N5             1.2199    -0.5050    -0.1023 N.2     
   6 N6            -1.1320    -0.7779     0.0872 N.pl3   
   7 C7            -1.1665     2.1923     0.0198 C.2     
   8 O8            -2.2745     1.6837    -0.0206 O.2     
   9 C9            -1.0307     3.6566     0.1384 C.2     
  10 N10            3.5362    -0.0320    -0.2930 N.pl3   
  11 C11            3.9080    -1.4490    -0.2913 C.3     
  12 C12            5.2574    -1.6407    -1.0055 C.3     
  13 C13            6.2244    -2.2442     0.0341 C.3     
  14 C14            5.2938    -2.9277     1.0665 C.3     
  15 C15            4.1020    -1.9426     1.1573 C.3     
  16 C16            0.2324     4.3211     0.3526 C.2     
  17 C17            0.1174     5.6430     0.4280 C.2     
  18 S18           -1.5606     6.1218     0.2369 S.3     
  19 C19           -2.0738     4.5069     0.0517 C.2     
  20 H20           -2.0031    -0.3553     0.1464 H       
  21 H21           -1.0601    -1.7451     0.1025 H       
  22 H22            4.2230     0.6496    -0.3615 H       
  23 H23            3.1362    -2.0378    -0.7870 H       
  24 H24            5.1407    -2.3233    -1.8472 H       
  25 H25            5.6356    -0.6795    -1.3534 H       
  26 H26            6.8787    -2.9790    -0.4350 H       
  27 H27            6.8110    -1.4587     0.5105 H       
  28 H28            4.9636    -3.9012     0.7039 H       
  29 H29            5.7913    -3.0223     2.0318 H       
  30 H30            4.3459    -1.1084     1.8152 H       
  31 H31            3.2075    -2.4573     1.5080 H       
  32 H32            1.1732     3.7985     0.4429 H       
  33 H33            0.9395     6.3256     0.5850 H       
  34 H34           -3.0983     4.2047    -0.1078 H       
@<TRIPOS>BOND
   1    1    2 2
   2    1    3 1
   3    1    7 1
   4    2    6 1
   5    2    5 1
   6    3    4 1
   7    4    5 2
   8    4   10 1
   9    6   20 1
  10    6   21 1
  11    7    8 2
  12    7    9 1
  13    9   16 1
  14    9   19 2
  15   10   11 1
  16   10   22 1
  17   11   12 1
  18   11   15 1
  19   11   23 1
  20   12   13 1
  21   12   24 1
  22   12   25 1
  23   13   14 1
  24   13   26 1
  25   13   27 1
  26   14   15 1
  27   14   28 1
  28   14   29 1
  29   15   30 1
  30   15   31 1
  31   16   17 2
  32   16   32 1
  33   17   18 1
  34   17   33 1
  35   18   19 1
  36   19   34 1

#	End of record

