#	Name: ASD01230631
#	Creating user name:	WinNT
#	Creation time:	15. 06. 2019 19:14

#	Modifying user name:	WinNT
#	Modification time:	15. 06. 2019 19:14

#	Program:	/corina/corina34_cracker 3.40 0067  02.08.2006

@<TRIPOS>MOLECULE
ASD01230631
  28   29    0    0    0
SMALL
NO_CHARGES


@<TRIPOS>ATOM
   1 N1            -0.0165     1.3640     0.0095 N.pl3   
   2 C2             0.0021    -0.0041     0.0020 C.2     
   3 C3             1.2701    -0.4444    -0.0124 C.2     
   4 C4             2.1343     0.7384    -0.0143 C.ar    
   5 C5             3.5175     0.9296    -0.0269 C.ar    
   6 C6             4.0271     2.1980    -0.0253 C.ar    
   7 C7             3.1795     3.2985    -0.0109 C.ar    
   8 C8             1.8123     3.1318     0.0021 C.ar    
   9 C9             1.2722     1.8497    -0.0002 C.ar    
  10 C10           -1.2269     2.1893     0.0200 C.3     
  11 C11           -1.5849     2.5878    -1.4132 C.3     
  12 C12           -1.9547     1.3370    -2.2130 C.3     
  13 C13           -2.7740     3.5503    -1.3930 C.3     
  14 Br14           5.9002     2.4566    -0.0424 Br      
  15 H15           -0.8737    -0.6360     0.0075 H       
  16 H16            1.5921    -1.4753    -0.0205 H       
  17 H17            4.1822     0.0784    -0.0375 H       
  18 H18            3.5968     4.2946    -0.0095 H       
  19 H19            1.1617     3.9937     0.0140 H       
  20 H20           -2.0495     1.6223     0.4557 H       
  21 H21           -1.0498     3.0865     0.6131 H       
  22 H22           -0.7293     3.0770    -1.8787 H       
  23 H23           -1.1075     0.6513    -2.2274 H       
  24 H24           -2.8102     0.8478    -1.7474 H       
  25 H25           -2.2097     1.6209    -3.2340 H       
  26 H26           -2.5105     4.4414    -0.8232 H       
  27 H27           -3.0290     3.8342    -2.4140 H       
  28 H28           -3.6296     3.0611    -0.9274 H       
@<TRIPOS>BOND
   1    1    2 1
   2    1    9 1
   3    1   10 1
   4    2    3 2
   5    2   15 1
   6    3    4 1
   7    3   16 1
   8    4    5 ar
   9    4    9 ar
  10    5    6 ar
  11    5   17 1
  12    6    7 ar
  13    6   14 1
  14    7    8 ar
  15    7   18 1
  16    8    9 ar
  17    8   19 1
  18   10   11 1
  19   10   20 1
  20   10   21 1
  21   11   12 1
  22   11   13 1
  23   11   22 1
  24   12   23 1
  25   12   24 1
  26   12   25 1
  27   13   26 1
  28   13   27 1
  29   13   28 1

#	End of record

