#	Name: ASD01811505
#	Creating user name:	WinNT
#	Creation time:	15. 06. 2019 19:26

#	Modifying user name:	WinNT
#	Modification time:	15. 06. 2019 19:26

#	Program:	/corina/corina34_cracker 3.40 0067  02.08.2006

@<TRIPOS>MOLECULE
ASD01811505
  71   75    0    0    0
SMALL
NO_CHARGES


@<TRIPOS>ATOM
   1 N1            -0.5097     0.8354    -1.5490 N.am    
   2 C2            -0.3649    -0.6109    -1.5915 C.3     
   3 C3             0.4565    -1.0078    -2.8330 C.3     
   4 C4             1.9034    -0.6588    -2.5359 C.2     
   5 C5             2.3757     0.5838    -2.3647 C.2     
   6 C6             1.5341     1.8467    -2.4348 C.3     
   7 C7             0.5442     1.7932    -1.2564 C.3     
   8 C8             4.0534    -0.7555    -2.1402 C.2     
   9 N9             2.9493    -1.5207    -2.3953 N.pl3   
  10 N10            3.6870     0.5098    -2.1263 N.2     
  11 C11           -1.7339     1.3348    -1.8106 C.2     
  12 O12           -2.6543     0.5841    -2.0669 O.2     
  13 O13           -1.9370     2.6656    -1.7880 O.3     
  14 C14            5.4254    -1.2621    -1.9179 C.ar    
  15 C15            6.4920    -0.3676    -1.8060 C.ar    
  16 C16            7.7732    -0.8386    -1.5984 C.ar    
  17 C17            8.0090    -2.1956    -1.4997 C.ar    
  18 C18            6.9515    -3.1009    -1.6098 C.ar    
  19 C19            5.6553    -2.6317    -1.8140 C.ar    
  20 C20            9.4107    -2.7007    -1.2731 C.3     
  21 C21            6.2441     1.1150    -1.9124 C.3     
  22 C22            7.2057    -4.5537    -1.5048 C.2     
  23 O23            7.8768    -4.9887    -0.5895 O.2     
  24 N24            6.6933    -5.3957    -2.4241 N.am    
  25 C25            6.8308    -6.8499    -2.2663 C.3     
  26 C26            7.4556    -7.4273    -3.5403 C.3     
  27 C27            6.6211    -7.0025    -4.7507 C.3     
  28 C28            6.6206    -5.4761    -4.8619 C.3     
  29 C29            5.9814    -4.8768    -3.6000 C.3     
  30 C30            7.2134    -7.5968    -6.0025 C.ar    
  31 C31            6.4557    -8.4501    -6.7849 C.ar    
  32 C32            6.9917    -8.9977    -7.9320 C.ar    
  33 C33            8.3019    -8.6887    -8.3031 C.ar    
  34 C34            9.0607    -7.8265    -7.5090 C.ar    
  35 C35            8.5105    -7.2822    -6.3671 C.ar    
  36 C36            8.8649    -9.2538    -9.4923 C.1     
  37 N37            9.3116    -9.7021   -10.4357 N.1     
  38 C38           -3.2806     3.1325    -2.0794 C.3     
  39 H39            0.1483    -0.9513    -0.6921 H       
  40 H40           -1.3505    -1.0734    -1.6447 H       
  41 H41            0.3618    -2.0783    -3.0152 H       
  42 H42            0.1100    -0.4492    -3.7026 H       
  43 H43            2.1731     2.7251    -2.3442 H       
  44 H44            0.9883     1.8782    -3.3777 H       
  45 H45            0.1063     2.7798    -1.1049 H       
  46 H46            1.0717     1.4877    -0.3528 H       
  47 H47            2.9169    -2.4878    -2.4628 H       
  48 H48            8.5946    -0.1426    -1.5133 H       
  49 H49            4.8332    -3.3273    -1.8954 H       
  50 H50            9.6256    -2.7089    -0.2045 H       
  51 H51            9.5010    -3.7120    -1.6697 H       
  52 H52           10.1192    -2.0465    -1.7812 H       
  53 H53            5.9136     1.4984    -0.9471 H       
  54 H54            7.1657     1.6173    -2.2066 H       
  55 H55            5.4738     1.3018    -2.6607 H       
  56 H56            7.4743    -7.0658    -1.4135 H       
  57 H57            5.8484    -7.2947    -2.1072 H       
  58 H58            8.4727    -7.0509    -3.6495 H       
  59 H59            7.4748    -8.5152    -3.4753 H       
  60 H60            5.5979    -7.3580    -4.6292 H       
  61 H61            7.6456    -5.1181    -4.9586 H       
  62 H62            6.0455    -5.1753    -5.7375 H       
  63 H63            4.9312    -5.1639    -3.5474 H       
  64 H64            6.0644    -3.7903    -3.6274 H       
  65 H65            5.4425    -8.6883    -6.4968 H       
  66 H66            6.3995    -9.6642    -8.5415 H       
  67 H67           10.0747    -7.5833    -7.7903 H       
  68 H68            9.0949    -6.6119    -5.7542 H       
  69 H69           -3.5686     2.8092    -3.0798 H       
  70 H70           -3.9757     2.7177    -1.3494 H       
  71 H71           -3.3062     4.2209    -2.0279 H       
@<TRIPOS>BOND
   1    1    2 1
   2    1    7 1
   3    1   11 am
   4    2    3 1
   5    2   39 1
   6    2   40 1
   7    3    4 1
   8    3   41 1
   9    3   42 1
  10    4    5 2
  11    4    9 1
  12    5    6 1
  13    5   10 1
  14    6    7 1
  15    6   43 1
  16    6   44 1
  17    7   45 1
  18    7   46 1
  19    8    9 1
  20    8   10 2
  21    8   14 1
  22    9   47 1
  23   11   12 2
  24   11   13 1
  25   13   38 1
  26   14   15 ar
  27   14   19 ar
  28   15   16 ar
  29   15   21 1
  30   16   17 ar
  31   16   48 1
  32   17   18 ar
  33   17   20 1
  34   18   19 ar
  35   18   22 1
  36   19   49 1
  37   20   50 1
  38   20   51 1
  39   20   52 1
  40   21   53 1
  41   21   54 1
  42   21   55 1
  43   22   23 2
  44   22   24 am
  45   24   25 1
  46   24   29 1
  47   25   26 1
  48   25   56 1
  49   25   57 1
  50   26   27 1
  51   26   58 1
  52   26   59 1
  53   27   28 1
  54   27   30 1
  55   27   60 1
  56   28   29 1
  57   28   61 1
  58   28   62 1
  59   29   63 1
  60   29   64 1
  61   30   31 ar
  62   30   35 ar
  63   31   32 ar
  64   31   65 1
  65   32   33 ar
  66   32   66 1
  67   33   34 ar
  68   33   36 1
  69   34   35 ar
  70   34   67 1
  71   35   68 1
  72   36   37 3
  73   38   69 1
  74   38   70 1
  75   38   71 1

#	End of record

