#	Name: ASD04370061
#	Creating user name:	WinNT
#	Creation time:	15. 06. 2019 20:49

#	Modifying user name:	WinNT
#	Modification time:	15. 06. 2019 20:49

#	Program:	/corina/corina34_cracker 3.40 0067  02.08.2006

@<TRIPOS>MOLECULE
ASD04370061
  80   82    0    0    0
SMALL
NO_CHARGES


@<TRIPOS>ATOM
   1 C1            -0.6309     1.0722     0.4056 C.2     
   2 C2            -0.4028    -0.4162     0.3442 C.3     
   3 C3             1.0876    -0.6958     0.1405 C.3     
   4 C4             1.3036    -2.1988    -0.0465 C.3     
   5 O5             0.3027     1.8314     0.2975 O.2     
   6 O6            -1.8721     1.5545     0.5748 O.3     
   7 N7             1.8353    -0.2372     1.3139 N.am    
   8 C8             3.1538     0.0231     1.2133 C.2     
   9 C9             3.9454     0.3894     2.4423 C.3     
  10 C10            5.4054     0.6326     2.0547 C.3     
  11 C11            6.2091     1.0045     3.3024 C.3     
  12 C12            7.6691     1.2477     2.9149 C.3     
  13 C13            8.4728     1.6195     4.1625 C.3     
  14 C14            9.9328     1.8627     3.7750 C.3     
  15 C15           10.7365     2.2346     5.0227 C.3     
  16 C16           12.1745     2.4742     4.6410 C.2     
  17 C17           12.7620     3.6231     4.9541 C.2     
  18 O18            3.7033    -0.0375     0.1338 O.2     
  19 C19           14.1695     3.8575     4.5805 C.ar    
  20 C20           14.8861     2.8838     3.9025 C.ar    
  21 C21           16.2123     3.0983     3.5475 C.ar    
  22 C22           16.8441     4.2661     3.8535 C.ar    
  23 C23           16.1559     5.2813     4.5398 C.ar    
  24 C24           16.7861     6.4947     4.8667 C.ar    
  25 C25           16.0904     7.4571     5.5320 C.ar    
  26 C26           14.7601     7.2580     5.8950 C.ar    
  27 C27           14.1188     6.0942     5.5946 C.ar    
  28 C28           14.8023     5.0828     4.9054 C.ar    
  29 N29            0.6331    -2.6406    -1.2766 N.3     
  30 C30            1.3969    -2.2397    -2.4656 C.3     
  31 C31            0.4071    -4.0921    -1.2608 C.3     
  32 C32           -2.0171     2.9984     0.6246 C.3     
  33 C33           -3.4694     3.3510     0.8180 C.ar    
  34 C34           -3.9837     3.4870     2.0939 C.ar    
  35 C35           -5.3159     3.8104     2.2713 C.ar    
  36 C36           -6.1338     3.9983     1.1728 C.ar    
  37 C37           -5.6193     3.8632    -0.1031 C.ar    
  38 C38           -4.2860     3.5440    -0.2805 C.ar    
  39 H39           -0.7341    -0.8733     1.2766 H       
  40 H40           -0.9683    -0.8364    -0.4875 H       
  41 H41            1.4391    -0.1653    -0.7444 H       
  42 H42            2.3712    -2.4061    -0.1201 H       
  43 H43            0.8875    -2.7346     0.8067 H       
  44 H44            1.3813    -0.1209     2.1632 H       
  45 H45            3.5312     1.2954     2.8846 H       
  46 H46            3.8921    -0.4249     3.1649 H       
  47 H47            5.8197    -0.2734     1.6124 H       
  48 H48            5.4587     1.4469     1.3321 H       
  49 H49            5.7949     1.9105     3.7448 H       
  50 H50            6.1558     0.1902     4.0250 H       
  51 H51            8.0834     0.3417     2.4725 H       
  52 H52            7.7224     2.0620     2.1923 H       
  53 H53            8.0585     2.5255     4.6049 H       
  54 H54            8.4195     0.8052     4.8851 H       
  55 H55           10.3470     0.9568     3.3327 H       
  56 H56            9.9861     2.6771     3.0524 H       
  57 H57           10.3222     3.1406     5.4650 H       
  58 H58           10.6832     1.4203     5.7453 H       
  59 H59           12.7273     1.7114     4.1128 H       
  60 H60           12.2092     4.3859     5.4823 H       
  61 H61           14.4090     1.9490     3.6478 H       
  62 H62           16.7519     2.3256     3.0202 H       
  63 H63           17.8756     4.4117     3.5684 H       
  64 H64           17.8170     6.6623     4.5918 H       
  65 H65           16.5767     8.3883     5.7824 H       
  66 H66           14.2299     8.0372     6.4224 H       
  67 H67           13.0876     5.9531     5.8826 H       
  68 H68            2.3617    -2.7469    -2.4658 H       
  69 H69            0.8423    -2.5135    -3.3631 H       
  70 H70            1.5535    -1.1611    -2.4502 H       
  71 H71           -0.2197    -4.3530    -0.4081 H       
  72 H72           -0.0905    -4.3924    -2.1829 H       
  73 H73            1.3639    -4.6079    -1.1797 H       
  74 H74           -1.4334     3.3937     1.4560 H       
  75 H75           -1.6592     3.4319    -0.3092 H       
  76 H76           -3.3447     3.3403     2.9522 H       
  77 H77           -5.7178     3.9160     3.2682 H       
  78 H78           -7.1748     4.2503     1.3114 H       
  79 H79           -6.2583     4.0096    -0.9613 H       
  80 H80           -3.8832     3.4421    -1.2774 H       
@<TRIPOS>BOND
   1    1    2 1
   2    1    5 2
   3    1    6 1
   4    2    3 1
   5    2   39 1
   6    2   40 1
   7    3    4 1
   8    3    7 1
   9    3   41 1
  10    4   29 1
  11    4   42 1
  12    4   43 1
  13    6   32 1
  14    7    8 am
  15    7   44 1
  16    8    9 1
  17    8   18 2
  18    9   10 1
  19    9   45 1
  20    9   46 1
  21   10   11 1
  22   10   47 1
  23   10   48 1
  24   11   12 1
  25   11   49 1
  26   11   50 1
  27   12   13 1
  28   12   51 1
  29   12   52 1
  30   13   14 1
  31   13   53 1
  32   13   54 1
  33   14   15 1
  34   14   55 1
  35   14   56 1
  36   15   16 1
  37   15   57 1
  38   15   58 1
  39   16   17 2
  40   16   59 1
  41   17   19 1
  42   17   60 1
  43   19   20 ar
  44   19   28 ar
  45   20   21 ar
  46   20   61 1
  47   21   22 ar
  48   21   62 1
  49   22   23 ar
  50   22   63 1
  51   23   24 ar
  52   23   28 ar
  53   24   25 ar
  54   24   64 1
  55   25   26 ar
  56   25   65 1
  57   26   27 ar
  58   26   66 1
  59   27   28 ar
  60   27   67 1
  61   29   30 1
  62   29   31 1
  63   30   68 1
  64   30   69 1
  65   30   70 1
  66   31   71 1
  67   31   72 1
  68   31   73 1
  69   32   33 1
  70   32   74 1
  71   32   75 1
  72   33   34 ar
  73   33   38 ar
  74   34   35 ar
  75   34   76 1
  76   35   36 ar
  77   35   77 1
  78   36   37 ar
  79   36   78 1
  80   37   38 ar
  81   37   79 1
  82   38   80 1

#	End of record

