#	Name: ASD01915814
#	Creating user name:	WinNT
#	Creation time:	15. 06. 2019 20:06

#	Modifying user name:	WinNT
#	Modification time:	15. 06. 2019 20:06

#	Program:	/corina/corina34_cracker 3.40 0067  02.08.2006

@<TRIPOS>MOLECULE
ASD01915814
  44   47    0    0    0
SMALL
NO_CHARGES


@<TRIPOS>ATOM
   1 C1            -0.0042     1.4686     0.2345 C.2     
   2 N2             0.0662     0.1191    -0.0301 N.pl3   
   3 C3            -1.1430    -0.6638    -0.3125 C.3     
   4 C4            -2.3280    -0.0486     0.4300 C.3     
   5 N5            -2.4044     1.3988     0.2637 N.am    
   6 C6            -1.2935     2.1742     0.2858 C.2     
   7 C7             1.2763     1.9059     0.4252 C.2     
   8 C8             2.0759     0.7651     0.2732 C.2     
   9 N9             1.2864    -0.2504     0.0107 N.2     
  10 C10            3.5775     0.7133     0.3894 C.3     
  11 O11            4.0779     2.0193     0.6824 O.3     
  12 C12            5.4215     2.1476     0.8199 C.ar    
  13 O13           -1.3589     3.3874     0.3453 O.2     
  14 C14            5.9682     3.3925     1.1050 C.ar    
  15 N15            6.1979     1.0853     0.6866 N.ar    
  16 C16            7.5091     1.1658     0.8125 C.ar    
  17 C17            8.1205     2.3718     1.0904 C.ar    
  18 C18            7.3401     3.5098     1.2428 C.ar    
  19 C19           -3.6531     1.9997     0.0768 C.ar    
  20 C20           -3.9651     2.5895    -1.1401 C.ar    
  21 C21           -4.5853     2.0020     1.1072 C.ar    
  22 C22           -5.8188     2.5952     0.9222 C.ar    
  23 C23           -6.1293     3.1877    -0.2873 C.ar    
  24 C24           -5.2042     3.1838    -1.3217 C.ar    
  25 O25           -5.5109     3.7667    -2.5104 O.3     
  26 C26           -6.8037     4.3648    -2.6252 C.3     
  27 H27           -1.3405    -0.6542    -1.3844 H       
  28 H28           -0.9977    -1.6910     0.0220 H       
  29 H29           -3.2488    -0.4952     0.0551 H       
  30 H30           -2.2351    -0.2767     1.4918 H       
  31 H31            1.6015     2.9121     0.6449 H       
  32 H32            3.8565     0.0291     1.1907 H       
  33 H33            4.0029     0.3638    -0.5514 H       
  34 H34            5.3310     4.2573     1.2173 H       
  35 H35            8.1113     0.2768     0.6969 H       
  36 H36            9.1942     2.4287     1.1925 H       
  37 H37            7.7936     4.4655     1.4605 H       
  38 H38           -3.2438     2.5858    -1.9439 H       
  39 H39           -4.3453     1.5394     2.0531 H       
  40 H40           -6.5423     2.5958     1.7241 H       
  41 H41           -7.0946     3.6507    -0.4290 H       
  42 H42           -7.5703     3.6067    -2.4643 H       
  43 H43           -6.9079     5.1512    -1.8777 H       
  44 H44           -6.9190     4.7924    -3.6211 H       
@<TRIPOS>BOND
   1    1    2 1
   2    1    7 2
   3    1    6 1
   4    2    3 1
   5    2    9 1
   6    3    4 1
   7    3   27 1
   8    3   28 1
   9    4    5 1
  10    4   29 1
  11    4   30 1
  12    5    6 am
  13    5   19 1
  14    6   13 2
  15    7    8 1
  16    7   31 1
  17    8    9 2
  18    8   10 1
  19   10   11 1
  20   10   32 1
  21   10   33 1
  22   11   12 1
  23   12   14 ar
  24   12   15 ar
  25   14   18 ar
  26   14   34 1
  27   15   16 ar
  28   16   17 ar
  29   16   35 1
  30   17   18 ar
  31   17   36 1
  32   18   37 1
  33   19   21 ar
  34   19   20 ar
  35   20   24 ar
  36   20   38 1
  37   21   22 ar
  38   21   39 1
  39   22   23 ar
  40   22   40 1
  41   23   24 ar
  42   23   41 1
  43   24   25 1
  44   25   26 1
  45   26   42 1
  46   26   43 1
  47   26   44 1

#	End of record

