#	Name: ASD09080133
#	Creating user name:	WinNT
#	Creation time:	15. 06. 2019 21:20

#	Modifying user name:	WinNT
#	Modification time:	15. 06. 2019 21:20

#	Program:	/corina/corina34_cracker 3.40 0067  02.08.2006

@<TRIPOS>MOLECULE
ASD09080133
  43   44    0    0    0
SMALL
NO_CHARGES


@<TRIPOS>ATOM
   1 C1            -0.0189     1.5449     0.0105 C.3     
   2 C2             0.0021    -0.0041     0.0020 C.3     
   3 O3             1.3945     1.8583    -0.0013 O.3     
   4 C4             2.0042     0.8373     0.8064 C.3     
   5 O5             1.1567    -0.3191     0.8062 O.3     
   6 C6             3.3723     0.4720     0.2268 C.3     
   7 C7             2.1758     1.3486     2.2381 C.3     
   8 C8            -1.2704    -0.5656     0.6396 C.3     
   9 C9            -1.2212    -2.0716     0.6169 C.2     
  10 O10           -2.0211    -2.6923    -0.0425 O.2     
  11 O11           -0.2887    -2.7235     1.3292 O.3     
  12 C12           -0.3009    -4.1738     1.2601 C.3     
  13 C13            0.8257    -4.7352     2.1299 C.3     
  14 O14           -2.4101    -0.1151    -0.0954 O.3     
  15 C15           -4.1441     1.4982    -0.4686 C.ar    
  16 C16           -5.4088     1.0719    -0.1083 C.ar    
  17 C17           -6.5020     1.4231    -0.8781 C.ar    
  18 C18           -6.3305     2.2009    -2.0079 C.ar    
  19 C19           -5.0659     2.6279    -2.3677 C.ar    
  20 C20           -3.9726     2.2755    -1.5987 C.ar    
  21 C21           -2.9532     1.1205     0.3740 C.3     
  22 H22           -0.5122     1.9334    -0.8804 H       
  23 H23           -0.4951     1.9237     0.9149 H       
  24 H24            0.1248    -0.3821    -1.0130 H       
  25 H25            4.0191     1.3493     0.2416 H       
  26 H26            3.8209    -0.3203     0.8260 H       
  27 H27            3.2515     0.1269    -0.8000 H       
  28 H28            1.2032     1.6276     2.6434 H       
  29 H29            2.6145     0.5636     2.8541 H       
  30 H30            2.8321     2.2188     2.2369 H       
  31 H31           -1.3431    -0.2199     1.6707 H       
  32 H32           -1.2592    -4.5467     1.6215 H       
  33 H33           -0.1542    -4.4896     0.2272 H       
  34 H34            0.8165    -5.8239     2.0781 H       
  35 H35            1.7840    -4.3623     1.7685 H       
  36 H36            0.6790    -4.4194     3.1628 H       
  37 H37           -5.5428     0.4643     0.7744 H       
  38 H38           -7.4899     1.0895    -0.5970 H       
  39 H39           -7.1845     2.4746    -2.6098 H       
  40 H40           -4.9319     3.2349    -3.2509 H       
  41 H41           -2.9845     2.6085    -1.8803 H       
  42 H42           -3.2637     1.0096     1.4130 H       
  43 H43           -2.1955     1.9008     0.3026 H       
@<TRIPOS>BOND
   1    1    2 1
   2    1    3 1
   3    1   22 1
   4    1   23 1
   5    2    5 1
   6    2    8 1
   7    2   24 1
   8    3    4 1
   9    4    5 1
  10    4    6 1
  11    4    7 1
  12    6   25 1
  13    6   26 1
  14    6   27 1
  15    7   28 1
  16    7   29 1
  17    7   30 1
  18    8    9 1
  19    8   14 1
  20    8   31 1
  21    9   10 2
  22    9   11 1
  23   11   12 1
  24   12   13 1
  25   12   32 1
  26   12   33 1
  27   13   34 1
  28   13   35 1
  29   13   36 1
  30   14   21 1
  31   15   16 ar
  32   15   20 ar
  33   15   21 1
  34   16   17 ar
  35   16   37 1
  36   17   18 ar
  37   17   38 1
  38   18   19 ar
  39   18   39 1
  40   19   20 ar
  41   19   40 1
  42   20   41 1
  43   21   42 1
  44   21   43 1

#	End of record

