#	Name: ASD01148749
#	Creating user name:	WinNT
#	Creation time:	15. 06. 2019 19:03

#	Modifying user name:	WinNT
#	Modification time:	15. 06. 2019 19:03

#	Program:	/corina/corina34_cracker 3.40 0067  02.08.2006

@<TRIPOS>MOLECULE
ASD01148749
  52   55    0    0    0
SMALL
NO_CHARGES


@<TRIPOS>ATOM
   1 C1            -0.2465     0.7465    -0.3388 C.ar    
   2 C2            -0.0477    -0.6206    -0.3992 C.ar    
   3 C3             1.2302    -1.1382    -0.3186 C.ar    
   4 C4             2.3159    -0.2844    -0.1768 C.ar    
   5 C5             2.1131     1.0879    -0.1166 C.ar    
   6 C6             0.8327     1.5995    -0.1978 C.ar    
   7 S7            -1.8777     1.4035    -0.4493 S.o2    
   8 O8            -1.7413     2.7415    -0.9078 O.2     
   9 O9            -2.6589     0.4267    -1.1238 O.2     
  10 N10           -2.4744     1.4961     1.0927 N.am    
  11 N11            3.6135    -0.8065    -0.0943 N.pl3   
  12 C12            4.2487    -1.4929    -1.0757 C.2     
  13 C13            5.5021    -1.8373    -0.6169 C.2     
  14 C14            5.6156    -1.3294     0.7033 C.2     
  15 C15            4.4487    -0.6994     0.9931 C.2     
  16 C16            6.5291    -2.5906    -1.3569 C.2     
  17 O17            6.3686    -2.8400    -2.5364 O.2     
  18 N18            7.6467    -3.0035    -0.7268 N.am    
  19 C19            8.7996    -3.6548    -1.3657 C.3     
  20 C20            9.8228    -3.9686    -0.2538 C.3     
  21 C21            8.9482    -3.9885     1.0276 C.3     
  22 C22            7.9183    -2.8710     0.7161 C.3     
  23 C23            3.6825    -1.8226    -2.4328 C.3     
  24 C24            4.1281    -0.0162     2.2649 C.ar    
  25 C25            2.8294     0.4308     2.5120 C.ar    
  26 C26            2.5364     1.0674     3.7001 C.ar    
  27 C27            3.5279     1.2633     4.6467 C.ar    
  28 C28            4.8184     0.8224     4.4069 C.ar    
  29 C29            5.1219     0.1789     3.2251 C.ar    
  30 Cl30           3.1516     2.0653     6.1396 Cl      
  31 H31           -0.8926    -1.2842    -0.5090 H       
  32 H32            1.3849    -2.2061    -0.3654 H       
  33 H33            2.9555     1.7545    -0.0060 H       
  34 H34            0.6743     2.6668    -0.1513 H       
  35 H35           -1.9287     1.2099     1.8418 H       
  36 H36           -3.3695     1.8365     1.2467 H       
  37 H37            6.4723    -1.4228     1.3543 H       
  38 H38            8.4824    -4.5788    -1.8491 H       
  39 H39            9.2445    -2.9835    -2.1002 H       
  40 H40           10.2862    -4.9411    -0.4196 H       
  41 H41           10.5784    -3.1854    -0.1929 H       
  42 H42            8.4572    -4.9538     1.1506 H       
  43 H43            9.5397    -3.7378     1.9082 H       
  44 H44            8.3415    -1.8904     0.9341 H       
  45 H45            7.0048    -3.0270     1.2900 H       
  46 H46            3.9235    -1.0215    -3.1316 H       
  47 H47            4.1143    -2.7578    -2.7892 H       
  48 H48            2.6000    -1.9271    -2.3593 H       
  49 H49            2.0554     0.2789     1.7743 H       
  50 H50            1.5318     1.4141     3.8923 H       
  51 H51            5.5877     0.9782     5.1487 H       
  52 H52            6.1277    -0.1688     3.0412 H       
@<TRIPOS>BOND
   1    1    2 ar
   2    1    6 ar
   3    1    7 1
   4    2    3 ar
   5    2   31 1
   6    3    4 ar
   7    3   32 1
   8    4    5 ar
   9    4   11 1
  10    5    6 ar
  11    5   33 1
  12    6   34 1
  13    7    8 2
  14    7    9 2
  15    7   10 am
  16   10   35 1
  17   10   36 1
  18   11   12 1
  19   11   15 1
  20   12   13 2
  21   12   23 1
  22   13   14 1
  23   13   16 1
  24   14   15 2
  25   14   37 1
  26   15   24 1
  27   16   17 2
  28   16   18 am
  29   18   19 1
  30   18   22 1
  31   19   20 1
  32   19   38 1
  33   19   39 1
  34   20   21 1
  35   20   40 1
  36   20   41 1
  37   21   22 1
  38   21   42 1
  39   21   43 1
  40   22   44 1
  41   22   45 1
  42   23   46 1
  43   23   47 1
  44   23   48 1
  45   24   25 ar
  46   24   29 ar
  47   25   26 ar
  48   25   49 1
  49   26   27 ar
  50   26   50 1
  51   27   28 ar
  52   27   30 1
  53   28   29 ar
  54   28   51 1
  55   29   52 1

#	End of record

