#	Name: ASD01813442
#	Creating user name:	WinNT
#	Creation time:	15. 06. 2019 19:30

#	Modifying user name:	WinNT
#	Modification time:	15. 06. 2019 19:30

#	Program:	/corina/corina34_cracker 3.40 0067  02.08.2006

@<TRIPOS>MOLECULE
ASD01813442
  54   58    0    0    0
SMALL
NO_CHARGES


@<TRIPOS>ATOM
   1 C1            -0.0167     1.3820     0.0096 C.ar    
   2 C2             0.0021    -0.0041     0.0020 C.ar    
   3 C3             1.1959    -0.6932    -0.0127 C.ar    
   4 C4             2.4016     0.0019    -0.0200 C.ar    
   5 C5             2.3831     1.4075    -0.0128 C.ar    
   6 C6             1.1665     2.0939     0.0022 C.ar    
   7 N7             3.6010    -0.6771    -0.0337 N.pl3   
   8 C8             4.7870    -0.0549    -0.0404 C.2     
   9 C9             4.8957     1.3208    -0.0340 C.2     
  10 C10            3.6667     2.1313    -0.0207 C.2     
  11 O11            3.7091     3.3491    -0.0150 O.2     
  12 C12            6.2161     1.9660    -0.0412 C.2     
  13 O13            6.3092     3.3109    -0.0348 O.3     
  14 O14            7.2244     1.2870    -0.0529 O.2     
  15 C15            3.5775    -2.1419    -0.0409 C.3     
  16 C16            3.5572    -2.6371    -1.4640 C.ar    
  17 C17            4.7473    -2.8826    -2.1251 C.ar    
  18 C18            4.7349    -3.3362    -3.4284 C.ar    
  19 C19            3.5200    -3.5468    -4.0787 C.ar    
  20 C20            2.3239    -3.2976    -3.4075 C.ar    
  21 C21            2.3486    -2.8497    -2.1024 C.ar    
  22 C22            3.5000    -4.0335    -5.4791 C.2     
  23 F23            1.1476     3.4448     0.0091 F       
  24 C24            4.2274    -3.4996    -6.5575 C.2     
  25 N25            3.9501    -4.1927    -7.6296 N.2     
  26 N26            3.0370    -5.2008    -7.2993 N.pl3   
  27 C27            2.7643    -5.1045    -5.9676 C.2     
  28 C28            1.8512    -5.9700    -5.1926 C.ar    
  29 C29            2.4767    -6.1903    -8.2228 C.3     
  30 C30            0.5928    -6.2953    -5.7019 C.ar    
  31 C31           -0.2548    -7.1038    -4.9732 C.ar    
  32 C32            0.1397    -7.5915    -3.7400 C.ar    
  33 C33            1.3854    -7.2726    -3.2292 C.ar    
  34 C34            2.2454    -6.4706    -3.9505 C.ar    
  35 H35           -0.9604     1.9071     0.0170 H       
  36 H36           -0.9295    -0.5505     0.0080 H       
  37 H37            1.1956    -1.7731    -0.0181 H       
  38 H38            5.6884    -0.6497    -0.0508 H       
  39 H39            7.1990     3.6894    -0.0400 H       
  40 H40            4.4660    -2.5220     0.4634 H       
  41 H41            2.6863    -2.4936     0.4789 H       
  42 H42            5.6880    -2.7188    -1.6204 H       
  43 H43            5.6646    -3.5272    -3.9437 H       
  44 H44            1.3797    -3.4590    -3.9063 H       
  45 H45            1.4225    -2.6566    -1.5812 H       
  46 H46            4.9019    -2.6575    -6.5079 H       
  47 H47            3.1163    -7.0727    -8.2418 H       
  48 H48            1.4777    -6.4728    -7.8905 H       
  49 H49            2.4191    -5.7618    -9.2234 H       
  50 H50            0.2833    -5.9147    -6.6641 H       
  51 H51           -1.2287    -7.3563    -5.3660 H       
  52 H52           -0.5278    -8.2238    -3.1733 H       
  53 H53            1.6869    -7.6560    -2.2656 H       
  54 H54            3.2176    -6.2227    -3.5509 H       
@<TRIPOS>BOND
   1    1    2 ar
   2    1    6 ar
   3    1   35 1
   4    2    3 ar
   5    2   36 1
   6    3    4 ar
   7    3   37 1
   8    4    5 ar
   9    4    7 1
  10    5    6 ar
  11    5   10 1
  12    6   23 1
  13    7    8 1
  14    7   15 1
  15    8    9 2
  16    8   38 1
  17    9   10 1
  18    9   12 1
  19   10   11 2
  20   12   13 1
  21   12   14 2
  22   13   39 1
  23   15   16 1
  24   15   40 1
  25   15   41 1
  26   16   17 ar
  27   16   21 ar
  28   17   18 ar
  29   17   42 1
  30   18   19 ar
  31   18   43 1
  32   19   20 ar
  33   19   22 1
  34   20   21 ar
  35   20   44 1
  36   21   45 1
  37   22   24 1
  38   22   27 2
  39   24   25 2
  40   24   46 1
  41   25   26 1
  42   26   27 1
  43   26   29 1
  44   27   28 1
  45   28   30 ar
  46   28   34 ar
  47   29   47 1
  48   29   48 1
  49   29   49 1
  50   30   31 ar
  51   30   50 1
  52   31   32 ar
  53   31   51 1
  54   32   33 ar
  55   32   52 1
  56   33   34 ar
  57   33   53 1
  58   34   54 1

#	End of record

