#	Name: ASD09720071
#	Creating user name:	WinNT
#	Creation time:	15. 06. 2019 21:22

#	Modifying user name:	WinNT
#	Modification time:	15. 06. 2019 21:22

#	Program:	/corina/corina34_cracker 3.40 0067  02.08.2006

@<TRIPOS>MOLECULE
ASD09720071
  49   50    0    0    0
SMALL
NO_CHARGES


@<TRIPOS>ATOM
   1 C1             0.0222     0.9975    -0.7202 C.ar    
   2 C2             0.1747    -0.4550    -0.9287 C.2     
   3 N3            -0.5060    -1.2870    -0.2086 N.2     
   4 C4             1.1233    -0.9697    -1.9805 C.3     
   5 O5            -1.3068    -0.8101     0.8574 O.3     
   6 S6             1.0866    -2.7833    -1.9925 S.3     
   7 C7             2.2371    -3.1946    -3.2621 C.ar    
   8 C8             2.8982    -2.1883    -3.9557 C.ar    
   9 C9             3.7992    -2.5144    -4.9501 C.ar    
  10 C10            4.0440    -3.8406    -5.2559 C.ar    
  11 C11            3.3875    -4.8451    -4.5678 C.ar    
  12 C12            2.4900    -4.5266    -3.5682 C.ar    
  13 C13            1.1101     1.8511    -0.9162 C.ar    
  14 C14            0.9636     3.2076    -0.7209 C.ar    
  15 C15           -0.2636     3.7264    -0.3297 C.ar    
  16 C16           -1.3493     2.8807    -0.1333 C.ar    
  17 C17           -1.2126     1.5235    -0.3317 C.ar    
  18 C18            2.1372     4.1291    -0.9317 C.3     
  19 C19            3.3837     3.3022    -1.2530 C.3     
  20 C20            1.8394     5.0761    -2.0960 C.3     
  21 C21            2.3801     4.9448     0.3397 C.3     
  22 O22           -0.4035     5.0637    -0.1378 O.3     
  23 C23           -1.1025     5.7944    -1.1476 C.3     
  24 Br24          -3.0176     3.5938     0.4000 Br      
  25 C25            1.7752    -5.6217    -2.8191 C.3     
  26 F26            2.1828    -6.8662    -3.3114 F       
  27 F27            2.0852    -5.5344    -1.4577 F       
  28 F28            0.3942    -5.4810    -2.9930 F       
  29 H29            0.8209    -0.5937    -2.9579 H       
  30 H30            2.1340    -0.6282    -1.7567 H       
  31 H31           -1.7775    -1.5054     1.3373 H       
  32 H32            2.7072    -1.1523    -3.7177 H       
  33 H33            4.3131    -1.7328    -5.4899 H       
  34 H34            4.7492    -4.0927    -6.0341 H       
  35 H35            3.5806    -5.8798    -4.8098 H       
  36 H36            2.0651     1.4487    -1.2202 H       
  37 H37           -2.0564     0.8669    -0.1794 H       
  38 H38            3.2107     2.7211    -2.1589 H       
  39 H39            4.2326     3.9687    -1.4055 H       
  40 H40            3.5959     2.6275    -0.4236 H       
  41 H41            1.0773     5.7945    -1.7942 H       
  42 H42            2.7496     5.6073    -2.3743 H       
  43 H43            1.4791     4.5010    -2.9490 H       
  44 H44            2.5923     4.2702     1.1692 H       
  45 H45            3.2289     5.6113     0.1872 H       
  46 H46            1.4920     5.5339     0.5686 H       
  47 H47           -1.1446     6.8477    -0.8705 H       
  48 H48           -0.5807     5.6895    -2.0989 H       
  49 H49           -2.1153     5.4032    -1.2437 H       
@<TRIPOS>BOND
   1    1    2 1
   2    1   13 ar
   3    1   17 ar
   4    2    3 2
   5    2    4 1
   6    3    5 1
   7    4    6 1
   8    4   29 1
   9    4   30 1
  10    5   31 1
  11    6    7 1
  12    7    8 ar
  13    7   12 ar
  14    8    9 ar
  15    8   32 1
  16    9   10 ar
  17    9   33 1
  18   10   11 ar
  19   10   34 1
  20   11   12 ar
  21   11   35 1
  22   12   25 1
  23   13   14 ar
  24   13   36 1
  25   14   15 ar
  26   14   18 1
  27   15   16 ar
  28   15   22 1
  29   16   17 ar
  30   16   24 1
  31   17   37 1
  32   18   19 1
  33   18   20 1
  34   18   21 1
  35   19   38 1
  36   19   39 1
  37   19   40 1
  38   20   41 1
  39   20   42 1
  40   20   43 1
  41   21   44 1
  42   21   45 1
  43   21   46 1
  44   22   23 1
  45   23   47 1
  46   23   48 1
  47   23   49 1
  48   25   26 1
  49   25   27 1
  50   25   28 1

#	End of record

