#	Name: ASD03730657
#	Creating user name:	WinNT
#	Creation time:	15. 06. 2019 20:44

#	Modifying user name:	WinNT
#	Modification time:	15. 06. 2019 20:44

#	Program:	/corina/corina34_cracker 3.40 0067  02.08.2006

@<TRIPOS>MOLECULE
ASD03730657
  70   75    0    0    0
SMALL
NO_CHARGES


@<TRIPOS>ATOM
   1 O1            -0.2826     1.2828     0.6531 O.3     
   2 C2            -0.2419    -0.1561     0.6877 C.3     
   3 O3             0.9262    -0.4841    -0.0874 O.3     
   4 C4             1.7573     0.5931     0.0306 C.ar    
   5 C5             1.0127     1.6801     0.4828 C.ar    
   6 C6             3.1115     0.7356    -0.2125 C.ar    
   7 C7             3.7382     1.9622    -0.0140 C.ar    
   8 C8             2.9814     3.0446     0.4245 C.ar    
   9 C9             1.6327     2.9031     0.6763 C.ar    
  10 O10            5.0480     2.3075    -0.1730 O.3     
  11 C11            3.9199     4.2184     0.5084 C.3     
  12 C12            5.1522     3.7408    -0.2723 C.3     
  13 N13            3.3408     6.3970     0.8827 N.am    
  14 C14            3.3287     5.4630    -0.0891 C.2     
  15 C15            4.2595     4.5798     1.9236 C.ar    
  16 C16            4.8249     3.8827     2.9827 C.ar    
  17 C17            5.0150     4.5193     4.2090 C.ar    
  18 C18            4.6388     5.8392     4.3602 C.ar    
  19 C19            4.0770     6.5317     3.3069 C.ar    
  20 C20            3.8812     5.9091     2.0753 C.ar    
  21 O21            2.9204     5.6005    -1.2228 O.2     
  22 C22            2.8460     7.7649     0.7084 C.3     
  23 C23            1.3603     7.8197     1.0698 C.3     
  24 C24            0.8435     9.2482     0.8878 C.3     
  25 C25           -0.6422     9.3030     1.2492 C.3     
  26 C26           -1.1590    10.7315     1.0672 C.3     
  27 C27            5.2252     2.4648     2.8107 C.ar    
  28 C28            4.4272     1.4419     3.3318 C.ar    
  29 C29            4.8075     0.1201     3.1674 C.ar    
  30 C30            5.9729    -0.1866     2.4903 C.ar    
  31 C31            6.7664     0.8240     1.9724 C.ar    
  32 C32            6.3947     2.1467     2.1245 C.ar    
  33 F33            7.9040     0.5156     1.3120 F       
  34 O34            3.2820     1.7436     3.9981 O.3     
  35 C35            2.5171     0.6472     4.5030 C.3     
  36 C36            1.2732     1.1792     5.2174 C.3     
  37 C37            0.4542     0.0053     5.7579 C.3     
  38 C38           -0.7898     0.5373     6.4723 C.3     
  39 H39           -0.1338    -0.5116     1.7124 H       
  40 H40           -1.1367    -0.5758     0.2280 H       
  41 H41            3.6864    -0.1107    -0.5584 H       
  42 H42            1.0584     3.7487     1.0252 H       
  43 H43            6.0696     4.0957     0.1974 H       
  44 H44            5.0996     4.0616    -1.3128 H       
  45 H45            5.4542     3.9822     5.0367 H       
  46 H46            4.7849     6.3331     5.3096 H       
  47 H47            3.7869     7.5637     3.4379 H       
  48 H48            3.4033     8.4386     1.3593 H       
  49 H49            2.9789     8.0699    -0.3296 H       
  50 H50            0.8030     7.1460     0.4190 H       
  51 H51            1.2274     7.5147     2.1078 H       
  52 H52            1.4009     9.9219     1.5387 H       
  53 H53            0.9764     9.5532    -0.1502 H       
  54 H54           -1.1995     8.6293     0.5984 H       
  55 H55           -0.7751     8.9980     2.2872 H       
  56 H56           -2.2174    10.7706     1.3247 H       
  57 H57           -0.6016    11.4052     1.7181 H       
  58 H58           -1.0260    11.0365     0.0292 H       
  59 H59            4.1927    -0.6718     3.5690 H       
  60 H60            6.2662    -1.2184     2.3648 H       
  61 H61            7.0125     2.9325     1.7157 H       
  62 H62            2.2144     0.0043     3.6764 H       
  63 H63            3.1227     0.0747     5.2056 H       
  64 H64            1.5759     1.8221     6.0439 H       
  65 H65            0.6676     1.7517     4.5147 H       
  66 H66            0.1515    -0.6376     4.9314 H       
  67 H67            1.0598    -0.5672     6.4605 H       
  68 H68           -0.4870     1.1802     7.2988 H       
  69 H69           -1.3953     1.1098     5.7696 H       
  70 H70           -1.3732    -0.2990     6.8573 H       
@<TRIPOS>BOND
   1    1    2 1
   2    1    5 1
   3    2    3 1
   4    2   39 1
   5    2   40 1
   6    3    4 1
   7    4    5 ar
   8    4    6 ar
   9    5    9 ar
  10    6    7 ar
  11    6   41 1
  12    7    8 ar
  13    7   10 1
  14    8    9 ar
  15    8   11 1
  16    9   42 1
  17   10   12 1
  18   11   12 1
  19   11   14 1
  20   11   15 1
  21   12   43 1
  22   12   44 1
  23   13   14 am
  24   13   20 1
  25   13   22 1
  26   14   21 2
  27   15   16 ar
  28   15   20 ar
  29   16   17 ar
  30   16   27 1
  31   17   18 ar
  32   17   45 1
  33   18   19 ar
  34   18   46 1
  35   19   20 ar
  36   19   47 1
  37   22   23 1
  38   22   48 1
  39   22   49 1
  40   23   24 1
  41   23   50 1
  42   23   51 1
  43   24   25 1
  44   24   52 1
  45   24   53 1
  46   25   26 1
  47   25   54 1
  48   25   55 1
  49   26   56 1
  50   26   57 1
  51   26   58 1
  52   27   28 ar
  53   27   32 ar
  54   28   29 ar
  55   28   34 1
  56   29   30 ar
  57   29   59 1
  58   30   31 ar
  59   30   60 1
  60   31   32 ar
  61   31   33 1
  62   32   61 1
  63   34   35 1
  64   35   36 1
  65   35   62 1
  66   35   63 1
  67   36   37 1
  68   36   64 1
  69   36   65 1
  70   37   38 1
  71   37   66 1
  72   37   67 1
  73   38   68 1
  74   38   69 1
  75   38   70 1

#	End of record

