#	Name: ASD01040015
#	Creating user name:	WinNT
#	Creation time:	15. 06. 2019 18:58

#	Modifying user name:	WinNT
#	Modification time:	15. 06. 2019 18:58

#	Program:	/corina/corina34_cracker 3.40 0067  02.08.2006

@<TRIPOS>MOLECULE
ASD01040015
  43   45    0    0    0
SMALL
NO_CHARGES


@<TRIPOS>ATOM
   1 C1             0.0033     1.3163     0.2247 C.ar    
   2 C2            -0.0178     0.0010    -0.2165 C.ar    
   3 C3            -1.2307    -0.6395    -0.4227 C.ar    
   4 C4            -2.4146     0.0333    -0.1885 C.ar    
   5 C5            -2.3909     1.3439     0.2506 C.ar    
   6 C6            -1.1829     1.9827     0.4629 C.ar    
   7 C7            -3.6836     2.0758     0.5043 C.3     
   8 C8            -3.8256     3.2302    -0.4873 C.3     
   9 C9            -5.0948     4.0119    -0.2485 C.3     
  10 C10           -5.2724     4.4636     1.2119 C.3     
  11 C11           -5.0468     3.2937     2.1726 C.3     
  12 C12           -3.6784     2.6580     1.9223 C.3     
  13 C13           -6.3622     3.1760    -0.5065 C.3     
  14 C14           -7.4729     3.9746     0.2141 C.3     
  15 C15           -6.7825     4.8148     1.2864 C.3     
  16 O16           -6.9759     6.2071     1.0295 O.3     
  17 C17           -4.3778     5.6574     1.5517 C.3     
  18 O18            1.1480    -0.6585    -0.4465 O.3     
  19 C19           -3.7327    -0.6619    -0.4124 C.3     
  20 H20            0.9464     1.8172     0.3860 H       
  21 H21           -1.2498    -1.6632    -0.7665 H       
  22 H22           -1.1670     3.0067     0.8060 H       
  23 H23           -4.5227     1.3893     0.3918 H       
  24 H24           -2.9707     3.8981    -0.3811 H       
  25 H25           -3.8405     2.8294    -1.5008 H       
  26 H26           -5.1050     4.8873    -0.8979 H       
  27 H27           -5.0775     3.6611     3.1983 H       
  28 H28           -5.8382     2.5573     2.0327 H       
  29 H29           -3.5149     1.8488     2.6341 H       
  30 H30           -2.8987     3.4113     2.0346 H       
  31 H31           -6.5680     3.1105    -1.5749 H       
  32 H32           -6.2601     2.1804    -0.0747 H       
  33 H33           -7.9855     4.6235    -0.4960 H       
  34 H34           -8.1844     3.2904     0.6764 H       
  35 H35           -7.1790     4.5561     2.2683 H       
  36 H36           -7.9005     6.4883     1.0620 H       
  37 H37           -4.6285     6.4958     0.9019 H       
  38 H38           -4.5341     5.9442     2.5916 H       
  39 H39           -3.3334     5.3826     1.4036 H       
  40 H40            1.4917    -1.1304     0.3244 H       
  41 H41           -4.0889    -1.0778     0.5301 H       
  42 H42           -4.4614     0.0543    -0.7920 H       
  43 H43           -3.6013    -1.4653    -1.1374 H       
@<TRIPOS>BOND
   1    1    2 ar
   2    1   20 1
   3    1    6 ar
   4    2   18 1
   5    2    3 ar
   6    3   21 1
   7    3    4 ar
   8    4    5 ar
   9    4   19 1
  10    5    6 ar
  11    5    7 1
  12    6   22 1
  13    7   23 1
  14    7    8 1
  15    7   12 1
  16    8   24 1
  17    8   25 1
  18    8    9 1
  19    9   26 1
  20    9   10 1
  21    9   13 1
  22   10   11 1
  23   10   17 1
  24   10   15 1
  25   11   12 1
  26   11   27 1
  27   11   28 1
  28   12   29 1
  29   12   30 1
  30   13   31 1
  31   13   32 1
  32   13   14 1
  33   14   15 1
  34   14   33 1
  35   14   34 1
  36   15   35 1
  37   15   16 1
  38   16   36 1
  39   17   37 1
  40   17   38 1
  41   17   39 1
  42   18   40 1
  43   19   41 1
  44   19   42 1
  45   19   43 1

#	End of record

