#	Name: ASD08178259
#	Creating user name:	WinNT
#	Creation time:	15. 06. 2019 21:18

#	Modifying user name:	WinNT
#	Modification time:	15. 06. 2019 21:18

#	Program:	/corina/corina34_cracker 3.40 0067  02.08.2006

@<TRIPOS>MOLECULE
ASD08178259
  71   74    0    0    0
SMALL
NO_CHARGES


@<TRIPOS>ATOM
   1 N1            -0.0168     1.3902     0.0097 N.am    
   2 C2            -0.2173     0.0103     0.0231 C.ar    
   3 C3             0.8683    -0.8557    -0.0926 C.ar    
   4 N4            -1.4399    -0.4832     0.1513 N.ar    
   5 N5            -1.6667    -1.7463     0.1686 N.ar    
   6 C6            -0.7002    -2.6368     0.0602 C.ar    
   7 C7             0.6159    -2.2190    -0.0733 C.ar    
   8 C8            -1.0247    -4.1082     0.0874 C.3     
   9 C9            -1.8115    -4.4335     1.3586 C.3     
  10 C10           -2.1410    -5.9273     1.3862 C.3     
  11 C11           -2.9278    -6.2527     2.6574 C.3     
  12 C12           -3.2523    -7.7241     2.6845 C.2     
  13 N13           -2.5213    -8.6581     3.2049 N.2     
  14 N14           -2.9690    -9.8359     3.1257 N.2     
  15 C15           -4.1130   -10.0077     2.5350 C.2     
  16 S16           -4.6995    -8.4828     2.0200 S.3     
  17 N17           -4.7575   -11.2270     2.3553 N.am    
  18 C18           -4.1929   -12.3617     2.8139 C.2     
  19 C19           -4.8913   -13.6828     2.6192 C.3     
  20 O20           -3.1229   -12.3195     3.3832 O.2     
  21 C21           -4.0568   -14.7853     3.2184 C.ar    
  22 C22           -4.2366   -15.1477     4.5400 C.ar    
  23 C23           -3.4710   -16.1591     5.0898 C.ar    
  24 C24           -2.5260   -16.8081     4.3177 C.ar    
  25 C25           -2.3467   -16.4462     2.9955 C.ar    
  26 C26           -3.1151   -15.4380     2.4446 C.ar    
  27 C27           -1.3160   -17.1534     2.1537 C.3     
  28 N28           -1.9311   -18.3103     1.4984 N.am    
  29 C29           -1.1940   -19.0976     0.6901 C.2     
  30 C30           -1.8267   -20.2877     0.0159 C.3     
  31 O31           -0.0216   -18.8484     0.5052 O.2     
  32 C32           -1.0750     2.2250     0.0167 C.2     
  33 O33           -2.2000     1.7786    -0.0599 O.2     
  34 C34           -0.8601     3.7130     0.1198 C.3     
  35 F35           -0.8699   -20.9443    -0.7655 F       
  36 F36           -2.3188   -21.1666     0.9868 F       
  37 F37           -2.8788   -19.8570    -0.7994 F       
  38 C38           -2.1935     4.4152     0.1067 C.ar    
  39 C39           -2.8565     4.6619     1.2943 C.ar    
  40 C40           -4.0796     5.3059     1.2822 C.ar    
  41 C41           -4.6395     5.7036     0.0825 C.ar    
  42 C42           -3.9760     5.4577    -1.1051 C.ar    
  43 C43           -2.7509     4.8175    -1.0926 C.ar    
  44 H44            0.8842     1.7494    -0.0006 H       
  45 H45            1.8745    -0.4770    -0.1944 H       
  46 H46            1.4199    -2.9345    -0.1636 H       
  47 H47           -1.6240    -4.3643    -0.7864 H       
  48 H48           -0.0997    -4.6845     0.0751 H       
  49 H49           -1.2123    -4.1774     2.2323 H       
  50 H50           -2.7366    -3.8571     1.3708 H       
  51 H51           -2.7402    -6.1835     0.5124 H       
  52 H52           -1.2159    -6.5037     1.3739 H       
  53 H53           -2.3286    -5.9966     3.5311 H       
  54 H54           -3.8529    -5.6763     2.6696 H       
  55 H55           -5.6133   -11.2607     1.9000 H       
  56 H56           -5.8640   -13.6554     3.1104 H       
  57 H57           -5.0274   -13.8683     1.5537 H       
  58 H58           -4.9750   -14.6406     5.1433 H       
  59 H59           -3.6110   -16.4418     6.1227 H       
  60 H60           -1.9273   -17.5977     4.7474 H       
  61 H61           -2.9751   -15.1553     1.4117 H       
  62 H62           -0.9326   -16.4687     1.3973 H       
  63 H63           -0.4962   -17.4890     2.7890 H       
  64 H64           -2.8688   -18.5097     1.6462 H       
  65 H65           -0.3385     3.9413     1.0493 H       
  66 H66           -0.2620     4.0532    -0.7255 H       
  67 H67           -2.4191     4.3512     2.2316 H       
  68 H68           -4.5979     5.4981     2.2100 H       
  69 H69           -5.5954     6.2062     0.0730 H       
  70 H70           -4.4136     5.7681    -2.0424 H       
  71 H71           -2.2326     4.6254    -2.0204 H       
@<TRIPOS>BOND
   1    1    2 1
   2    1   32 am
   3    1   44 1
   4    2    3 ar
   5    2    4 ar
   6    3    7 ar
   7    3   45 1
   8    4    5 ar
   9    5    6 ar
  10    6    7 ar
  11    6    8 1
  12    7   46 1
  13    8    9 1
  14    8   47 1
  15    8   48 1
  16    9   10 1
  17    9   49 1
  18    9   50 1
  19   10   11 1
  20   10   51 1
  21   10   52 1
  22   11   12 1
  23   11   53 1
  24   11   54 1
  25   12   13 2
  26   12   16 1
  27   13   14 1
  28   14   15 2
  29   15   16 1
  30   15   17 1
  31   17   18 am
  32   17   55 1
  33   18   19 1
  34   18   20 2
  35   19   21 1
  36   19   56 1
  37   19   57 1
  38   21   22 ar
  39   21   26 ar
  40   22   23 ar
  41   22   58 1
  42   23   24 ar
  43   23   59 1
  44   24   25 ar
  45   24   60 1
  46   25   26 ar
  47   25   27 1
  48   26   61 1
  49   27   28 1
  50   27   62 1
  51   27   63 1
  52   28   29 am
  53   28   64 1
  54   29   30 1
  55   29   31 2
  56   30   35 1
  57   30   36 1
  58   30   37 1
  59   32   33 2
  60   32   34 1
  61   34   38 1
  62   34   65 1
  63   34   66 1
  64   38   39 ar
  65   38   43 ar
  66   39   40 ar
  67   39   67 1
  68   40   41 ar
  69   40   68 1
  70   41   42 ar
  71   41   69 1
  72   42   43 ar
  73   42   70 1
  74   43   71 1

#	End of record

