#	Name: ASD01813069
#	Creating user name:	WinNT
#	Creation time:	15. 06. 2019 19:29

#	Modifying user name:	WinNT
#	Modification time:	15. 06. 2019 19:29

#	Program:	/corina/corina34_cracker 3.40 0067  02.08.2006

@<TRIPOS>MOLECULE
ASD01813069
  62   66    0    0    0
SMALL
NO_CHARGES


@<TRIPOS>ATOM
   1 C1            -0.0898     1.5470    -0.2302 C.2     
   2 C2            -0.0113     0.2117    -0.1036 C.2     
   3 N3            -1.1421    -0.5499    -0.0147 N.pl3   
   4 C4            -2.3785    -0.0381    -0.0339 C.2     
   5 C5            -2.5632     1.3253    -0.1515 C.2     
   6 C6            -1.3678     2.1716    -0.2583 C.2     
   7 O7            -1.4682     3.3838    -0.3628 O.2     
   8 C8            -0.9934    -2.0022     0.1076 C.3     
   9 C9            -0.8419    -2.3711     1.5609 C.ar    
  10 C10            1.1178     2.4377    -0.3524 C.3     
  11 C11            2.3760     1.7121     0.1192 C.3     
  12 C12            2.4358     0.3519    -0.5869 C.3     
  13 C13            1.3073    -0.5196    -0.0420 C.3     
  14 C14           -1.9642    -2.5093     2.3574 C.ar    
  15 C15           -1.8313    -2.8469     3.6890 C.ar    
  16 C16           -0.5634    -3.0488     4.2306 C.ar    
  17 C17            0.5638    -2.9083     3.4236 C.ar    
  18 C18            0.4188    -2.5758     2.0919 C.ar    
  19 O19            1.2814     2.8234    -1.7186 O.3     
  20 C20           -0.4142    -3.4115     5.6617 C.ar    
  21 C21            0.8537    -3.6133     6.2034 C.ar    
  22 C22            0.9867    -3.9506     7.5351 C.ar    
  23 C23           -0.1357    -4.0888     8.3316 C.ar    
  24 C24           -1.3967    -3.8900     7.7990 C.ar    
  25 C25           -1.5410    -3.5459     6.4702 C.ar    
  26 C26            0.9085     3.6898     0.5016 C.3     
  27 C27            2.1680     4.5173     0.4971 C.ar    
  28 C28            2.3533     5.4887    -0.4688 C.ar    
  29 C29            3.5086     6.2477    -0.4730 C.ar    
  30 C30            4.4784     6.0356     0.4890 C.ar    
  31 C31            4.2927     5.0649     1.4554 C.ar    
  32 C32            3.1354     4.3088     1.4622 C.ar    
  33 C33           -3.9131     1.9104    -0.1729 C.2     
  34 O34           -4.8888     1.1908    -0.0862 O.2     
  35 O35           -4.0677     3.2443    -0.2885 O.3     
  36 H36           -3.2339    -0.6930     0.0423 H       
  37 H37           -1.8761    -2.4936    -0.3018 H       
  38 H38           -0.1098    -2.3247    -0.4432 H       
  39 H39            3.2576     2.2993    -0.1380 H       
  40 H40            2.3332     1.5650     1.1984 H       
  41 H41            2.3084     0.4892    -1.6606 H       
  42 H42            3.3963    -0.1236    -0.3880 H       
  43 H43            1.5243    -0.7815     0.9936 H       
  44 H44            1.2399    -1.4315    -0.6353 H       
  45 H45           -2.9464    -2.3522     1.9366 H       
  46 H46           -2.7082    -2.9542     4.3101 H       
  47 H47            1.5488    -3.0636     3.8384 H       
  48 H48            1.2918    -2.4667     1.4655 H       
  49 H49            2.0415     3.4000    -1.8762 H       
  50 H50            1.7306    -3.5064     5.5822 H       
  51 H51            1.9689    -4.1073     7.9559 H       
  52 H52           -0.0271    -4.3532     9.3731 H       
  53 H53           -2.2697    -3.9996     8.4253 H       
  54 H54           -2.5260    -3.3907     6.0554 H       
  55 H55            0.0868     4.2766     0.0910 H       
  56 H56            0.6701     3.3966     1.5240 H       
  57 H57            1.5956     5.6543    -1.2204 H       
  58 H58            3.6537     7.0061    -1.2281 H       
  59 H59            5.3814     6.6281     0.4853 H       
  60 H60            5.0505     4.8990     2.2068 H       
  61 H61            2.9903     3.5504     2.2173 H       
  62 H62           -4.9738     3.5820    -0.2980 H       
@<TRIPOS>BOND
   1    1    2 2
   2    1   10 1
   3    1    6 1
   4    2    3 1
   5    2   13 1
   6    3    4 1
   7    3    8 1
   8    4    5 2
   9    4   36 1
  10    5    6 1
  11    5   33 1
  12    6    7 2
  13    8    9 1
  14    8   37 1
  15    8   38 1
  16    9   14 ar
  17    9   18 ar
  18   10   11 1
  19   10   19 1
  20   10   26 1
  21   11   12 1
  22   11   39 1
  23   11   40 1
  24   12   13 1
  25   12   41 1
  26   12   42 1
  27   13   43 1
  28   13   44 1
  29   14   15 ar
  30   14   45 1
  31   15   16 ar
  32   15   46 1
  33   16   17 ar
  34   16   20 1
  35   17   18 ar
  36   17   47 1
  37   18   48 1
  38   19   49 1
  39   20   21 ar
  40   20   25 ar
  41   21   22 ar
  42   21   50 1
  43   22   23 ar
  44   22   51 1
  45   23   24 ar
  46   23   52 1
  47   24   25 ar
  48   24   53 1
  49   25   54 1
  50   26   27 1
  51   26   55 1
  52   26   56 1
  53   27   28 ar
  54   27   32 ar
  55   28   29 ar
  56   28   57 1
  57   29   30 ar
  58   29   58 1
  59   30   31 ar
  60   30   59 1
  61   31   32 ar
  62   31   60 1
  63   32   61 1
  64   33   34 2
  65   33   35 1
  66   35   62 1

#	End of record

