#	Name: ASD01910290
#	Creating user name:	WinNT
#	Creation time:	15. 06. 2019 19:55

#	Modifying user name:	WinNT
#	Modification time:	15. 06. 2019 19:55

#	Program:	/corina/corina34_cracker 3.40 0067  02.08.2006

@<TRIPOS>MOLECULE
ASD01910290
  44   47    0    0    0
SMALL
NO_CHARGES


@<TRIPOS>ATOM
   1 C1            -0.6747     2.3242     0.1867 C.ar    
   2 C2            -0.8077     0.9497     0.2562 C.ar    
   3 C3             0.3147     0.1424     0.3052 C.ar    
   4 C4             1.5746     0.7053     0.2855 C.ar    
   5 C5             1.7157     2.0894     0.2156 C.ar    
   6 C6             0.5818     2.8987     0.1659 C.ar    
   7 C7             3.0685     2.7003     0.1941 C.2     
   8 N8             3.3507     3.9863     0.1303 N.2     
   9 N9             4.6335     4.1092     0.1340 N.pl3   
  10 N10            5.1729     2.9421     0.1982 N.2     
  11 N11            4.2407     2.0517     0.2417 N.2     
  12 C12            5.3635     5.3779     0.0741 C.3     
  13 C13            6.2335     5.5262     1.3244 C.3     
  14 C14            6.9714     6.8662     1.2785 C.3     
  15 C15            7.8833     6.9006     0.0481 C.3     
  16 N16            7.0768     6.6146    -1.1463 N.am    
  17 C17            6.2571     5.3955    -1.1700 C.3     
  18 C18            7.0887     7.4546    -2.2002 C.2     
  19 C19            6.3770     7.0911    -3.4426 C.ar    
  20 O20            7.6852     8.5115    -2.1284 O.2     
  21 C21            5.6350     8.0525    -4.1320 C.ar    
  22 C22            4.9732     7.7080    -5.2910 C.ar    
  23 C23            5.0433     6.4097    -5.7726 C.ar    
  24 C24            5.7782     5.4511    -5.0918 C.ar    
  25 C25            6.4485     5.7862    -3.9349 C.ar    
  26 F26            4.3927     6.0773    -6.9091 F       
  27 Cl27           0.7479     4.6245     0.0781 Cl      
  28 H28           -1.5542     2.9495     0.1442 H       
  29 H29           -1.7916     0.5046     0.2726 H       
  30 H30            0.2047    -0.9306     0.3594 H       
  31 H31            2.4498     0.0737     0.3246 H       
  32 H32            4.6539     6.2039     0.0246 H       
  33 H33            5.6025     5.4893     2.2124 H       
  34 H34            6.9588     4.7133     1.3606 H       
  35 H35            6.2471     7.6784     1.2174 H       
  36 H36            7.5727     6.9815     2.1803 H       
  37 H37            8.3354     7.8881    -0.0442 H       
  38 H38            8.6641     6.1470     0.1508 H       
  39 H39            6.9054     4.5192    -1.1666 H       
  40 H40            5.6364     5.3899    -2.0659 H       
  41 H41            5.5795     9.0640    -3.7576 H       
  42 H42            4.3988     8.4507    -5.8248 H       
  43 H43            5.8291     4.4411    -5.4710 H       
  44 H44            7.0209     5.0389    -3.4055 H       
@<TRIPOS>BOND
   1    1    2 ar
   2    1    6 ar
   3    1   28 1
   4    2    3 ar
   5    2   29 1
   6    3    4 ar
   7    3   30 1
   8    4    5 ar
   9    4   31 1
  10    5    6 ar
  11    5    7 1
  12    6   27 1
  13    7    8 2
  14    7   11 1
  15    8    9 1
  16    9   10 1
  17    9   12 1
  18   10   11 2
  19   12   13 1
  20   12   17 1
  21   12   32 1
  22   13   14 1
  23   13   33 1
  24   13   34 1
  25   14   15 1
  26   14   35 1
  27   14   36 1
  28   15   16 1
  29   15   37 1
  30   15   38 1
  31   16   17 1
  32   16   18 am
  33   17   39 1
  34   17   40 1
  35   18   19 1
  36   18   20 2
  37   19   21 ar
  38   19   25 ar
  39   21   22 ar
  40   21   41 1
  41   22   23 ar
  42   22   42 1
  43   23   24 ar
  44   23   26 1
  45   24   25 ar
  46   24   43 1
  47   25   44 1

#	End of record

