#	Name: ASD02810003
#	Creating user name:	WinNT
#	Creation time:	15. 06. 2019 20:26

#	Modifying user name:	WinNT
#	Modification time:	15. 06. 2019 20:26

#	Program:	/corina/corina34_cracker 3.40 0067  02.08.2006

@<TRIPOS>MOLECULE
ASD02810003
  58   61    0    0    0
SMALL
NO_CHARGES


@<TRIPOS>ATOM
   1 C1            -0.6782     1.4693    -0.0682 C.3     
   2 C2            -0.4387    -0.0556    -0.0521 C.3     
   3 C3             0.4940    -0.4287     1.0951 C.3     
   4 C4             1.8406     0.2879     0.9823 C.3     
   5 C5             1.5506     1.7827     0.9995 C.3     
   6 C6             0.6727     2.1337    -0.2204 C.3     
   7 C7             0.8922     2.1900     2.3117 C.3     
   8 C8             0.4835     3.6575     2.3675 C.3     
   9 C9             1.6010     4.5769     1.8623 C.3     
  10 C10            2.0213     4.0584     0.4638 C.3     
  11 C11            0.6891     3.6619    -0.2377 C.3     
  12 C12            0.5847    -1.9277     1.3105 C.3     
  13 C13            1.5527    -2.2652     2.4490 C.3     
  14 C14            2.9059    -1.5926     2.2429 C.3     
  15 C15            2.7231    -0.0763     2.1793 C.3     
  16 C16            2.7537     2.7071     0.7576 C.3     
  17 H17            2.6251     4.7664    -0.1055 H       
  18 O18            2.7116     4.5428     2.7634 O.3     
  19 H19            1.1345     1.7933    -1.1503 H       
  20 C20            2.5830    -0.0637    -0.3064 C.3     
  21 C21            1.0850     6.0171     1.7537 C.3     
  22 O22            0.6514     6.4660     3.0392 O.3     
  23 C23           -0.8071    -2.4351     1.7606 C.3     
  24 O24           -0.7538    -3.8474     1.9720 O.3     
  25 C25            0.9615    -2.6987     0.0500 C.3     
  26 O26            0.9871    -1.8365     3.6911 O.3     
  27 H27           -1.3166     1.7255    -0.9153 H       
  28 H28           -1.1539     1.7775     0.8605 H       
  29 H29           -1.4027    -0.5459     0.0720 H       
  30 H30           -0.0097    -0.3519    -1.0045 H       
  31 H31            0.0041    -0.0321     2.0141 H       
  32 H32            0.0007     1.5837     2.4792 H       
  33 H33            1.5917     1.9963     3.1309 H       
  34 H34           -0.4413     3.8190     1.8290 H       
  35 H35            0.2891     3.9125     3.4235 H       
  36 H36            0.7199     4.0002    -1.2843 H       
  37 H37           -0.1838     4.0768     0.2350 H       
  38 H38            1.6913    -3.3498     2.4832 H       
  39 H39            3.5516    -1.8306     3.0982 H       
  40 H40            3.3866    -1.9652     1.3448 H       
  41 H41            3.6971     0.4021     2.0668 H       
  42 H42            2.2549     0.2706     3.0993 H       
  43 H43            3.3864     2.7694     1.6390 H       
  44 H44            3.3368     2.4016    -0.1116 H       
  45 H45            2.4982     4.8300     3.6617 H       
  46 H46            1.9219     0.0883    -1.1596 H       
  47 H47            3.4593     0.5767    -0.4072 H       
  48 H48            2.8974    -1.1068    -0.2717 H       
  49 H49            1.8854     6.6637     1.3940 H       
  50 H50            0.2485     6.0517     1.0556 H       
  51 H51            0.3116     7.3713     3.0457 H       
  52 H52           -1.0920    -1.9393     2.6885 H       
  53 H53           -1.5428    -2.2109     0.9881 H       
  54 H54           -1.5931    -4.2345     2.2563 H       
  55 H55            1.9880    -2.4603    -0.2285 H       
  56 H56            0.8756    -3.7687     0.2393 H       
  57 H57            0.2902    -2.4182    -0.7617 H       
  58 H58            1.5446    -2.0171     4.4603 H       
@<TRIPOS>BOND
   1    1    2 1
   2    1    6 1
   3    1   27 1
   4    1   28 1
   5    2    3 1
   6    2   29 1
   7    2   30 1
   8    3    4 1
   9    3   12 1
  10    3   31 1
  11    4    5 1
  12    4   20 1
  13    4   15 1
  14    5    6 1
  15    5    7 1
  16    5   16 1
  17    6   19 1
  18    6   11 1
  19    7    8 1
  20    7   32 1
  21    7   33 1
  22    8    9 1
  23    8   34 1
  24    8   35 1
  25    9   10 1
  26    9   18 1
  27    9   21 1
  28   10   11 1
  29   10   16 1
  30   10   17 1
  31   11   36 1
  32   11   37 1
  33   12   23 1
  34   12   25 1
  35   12   13 1
  36   13   14 1
  37   13   26 1
  38   13   38 1
  39   14   15 1
  40   14   39 1
  41   14   40 1
  42   15   41 1
  43   15   42 1
  44   16   43 1
  45   16   44 1
  46   18   45 1
  47   20   46 1
  48   20   47 1
  49   20   48 1
  50   21   22 1
  51   21   49 1
  52   21   50 1
  53   22   51 1
  54   23   24 1
  55   23   52 1
  56   23   53 1
  57   24   54 1
  58   25   55 1
  59   25   56 1
  60   25   57 1
  61   26   58 1

#	End of record

