#	Name: ASD03731854
#	Creating user name:	WinNT
#	Creation time:	15. 06. 2019 20:46

#	Modifying user name:	WinNT
#	Modification time:	15. 06. 2019 20:46

#	Program:	/corina/corina34_cracker 3.40 0067  02.08.2006

@<TRIPOS>MOLECULE
ASD03731854
  33   34    0    0    0
SMALL
NO_CHARGES


@<TRIPOS>ATOM
   1 C1            -0.1162     1.4101    -0.8571 C.2     
   2 C2            -0.0721    -0.0498    -0.6522 C.ar    
   3 C3             1.1580    -0.7125    -0.5962 C.ar    
   4 C4             1.1960    -2.0695    -0.4051 C.ar    
   5 C5             0.0108    -2.7881    -0.2668 C.ar    
   6 C6            -1.2161    -2.1308    -0.3226 C.ar    
   7 C7            -1.2600    -0.7732    -0.5077 C.ar    
   8 O8             0.9178     2.0387    -0.9776 O.2     
   9 N9            -1.3027     2.0467    -0.9164 N.am    
  10 S10           -1.3522     3.6858    -1.1466 S.o2    
  11 O11           -2.7379     4.0004    -1.1293 O.2     
  12 O12           -0.4708     4.2050    -0.1603 O.2     
  13 S13            0.0635    -4.5322    -0.0213 S.3     
  14 C14            1.7775    -4.9044    -0.1895 C.ar    
  15 C15            2.5927    -4.9536     0.9347 C.ar    
  16 C16            3.9362    -5.2463     0.7996 C.ar    
  17 C17            4.4701    -5.4904    -0.4553 C.ar    
  18 C18            3.6601    -5.4415    -1.5759 C.ar    
  19 C19            2.3152    -5.1550    -1.4459 C.ar    
  20 Cl20           4.9562    -5.3076     2.2030 Cl      
  21 Cl21           6.1585    -5.8579    -0.6221 Cl      
  22 C22           -0.6645     3.9308    -2.8072 C.3     
  23 H23            2.0773    -0.1559    -0.7037 H       
  24 H24            2.1457    -2.5819    -0.3621 H       
  25 H25           -2.1334    -2.6907    -0.2157 H       
  26 H26           -2.2114    -0.2634    -0.5461 H       
  27 H27           -2.1275     1.5447    -0.8243 H       
  28 H28            2.1766    -4.7630     1.9129 H       
  29 H29            4.0791    -5.6315    -2.5530 H       
  30 H30            1.6827    -5.1218    -2.3207 H       
  31 H31           -1.2763     3.3989    -3.5359 H       
  32 H32           -0.6589     4.9945    -3.0449 H       
  33 H33            0.3549     3.5461    -2.8387 H       
@<TRIPOS>BOND
   1    1    2 1
   2    1    8 2
   3    1    9 am
   4    2    3 ar
   5    2    7 ar
   6    3    4 ar
   7    3   23 1
   8    4    5 ar
   9    4   24 1
  10    5    6 ar
  11    5   13 1
  12    6    7 ar
  13    6   25 1
  14    7   26 1
  15    9   10 am
  16    9   27 1
  17   10   11 2
  18   10   12 2
  19   10   22 1
  20   13   14 1
  21   14   15 ar
  22   14   19 ar
  23   15   16 ar
  24   15   28 1
  25   16   17 ar
  26   16   20 1
  27   17   18 ar
  28   17   21 1
  29   18   19 ar
  30   18   29 1
  31   19   30 1
  32   22   31 1
  33   22   32 1
  34   22   33 1

#	End of record

