#	Name: ASD01817041
#	Creating user name:	WinNT
#	Creation time:	15. 06. 2019 19:36

#	Modifying user name:	WinNT
#	Modification time:	15. 06. 2019 19:36

#	Program:	/corina/corina34_cracker 3.40 0067  02.08.2006

@<TRIPOS>MOLECULE
ASD01817041
  62   65    0    0    0
SMALL
NO_CHARGES


@<TRIPOS>ATOM
   1 C1            -0.0169     1.3943     0.0097 C.ar    
   2 C2             0.0021    -0.0041     0.0020 C.ar    
   3 C3            -1.1793    -0.7117     0.0095 C.ar    
   4 C4            -2.3937    -0.0377     0.0246 C.ar    
   5 C5            -2.4199     1.3609     0.0324 C.ar    
   6 C6            -1.2361     2.0750     0.0308 C.ar    
   7 N7            -3.7166    -0.4638     0.0349 N.am    
   8 C8            -4.5137     0.6208     0.0483 C.2     
   9 N9            -3.7616     1.7375     0.0472 N.am    
  10 O10           -5.7302     0.5958     0.0597 O.2     
  11 C11           -4.2670     3.1125     0.0601 C.3     
  12 C12           -5.1328     3.3511    -1.1801 C.3     
  13 C13           -5.7070     4.7688    -1.1302 C.3     
  14 N14           -6.5106     4.9302     0.0882 N.3     
  15 C15           -5.6900     4.7523     1.2930 C.3     
  16 C16           -5.1152     3.3341     1.3154 C.3     
  17 C17           -7.1904     6.2324     0.1019 C.3     
  18 C18           -8.0157     6.3634     1.3835 C.3     
  19 C19           -8.7237     7.7197     1.3978 C.3     
  20 C20           -9.6479     7.8253     0.1830 C.3     
  21 C21           -8.8226     7.6942    -1.0986 C.3     
  22 C22           -8.1146     6.3380    -1.1129 C.3     
  23 C23           -6.1489     7.3519     0.0492 C.3     
  24 O24          -10.3092     9.0920     0.1963 O.3     
  25 C25          -11.6052     9.0774    -0.4055 C.3     
  26 C26          -12.2160    10.4785    -0.3351 C.3     
  27 O27          -11.4399    11.3769    -1.1305 O.3     
  28 C28          -11.9277    12.7201    -1.1334 C.3     
  29 C29            1.2131     2.1276     0.0019 C.1     
  30 N30            2.1888     2.7093    -0.0043 N.1     
  31 H31            0.9452    -0.5301    -0.0101 H       
  32 H32           -1.1615    -1.7915     0.0031 H       
  33 H33           -1.2543     3.1548     0.0368 H       
  34 H34           -4.0150    -1.3867     0.0328 H       
  35 H35           -3.4284     3.8088     0.0584 H       
  36 H36           -4.5236     3.2366    -2.0767 H       
  37 H37           -5.9486     2.6285    -1.1989 H       
  38 H38           -4.8909     5.4913    -1.1253 H       
  39 H39           -6.3355     4.9370    -2.0047 H       
  40 H40           -4.8739     5.4748     1.2865 H       
  41 H41           -6.3062     4.9085     2.1784 H       
  42 H42           -5.9308     2.6112     1.3359 H       
  43 H43           -4.4936     3.2074     2.2018 H       
  44 H44           -8.7577     5.5658     1.4211 H       
  45 H45           -7.3573     6.2882     2.2490 H       
  46 H46           -9.3117     7.8130     2.3108 H       
  47 H47           -7.9817     8.5173     1.3602 H       
  48 H48          -10.3899     7.0277     0.2205 H       
  49 H49           -9.4810     7.7695    -1.9640 H       
  50 H50           -8.0806     8.4918    -1.1361 H       
  51 H51           -7.5266     6.2446    -2.0259 H       
  52 H52           -8.8565     5.5404    -1.0753 H       
  53 H53           -5.5610     7.2586    -0.8638 H       
  54 H54           -6.6533     8.3182     0.0594 H       
  55 H55           -5.4905     7.2767     0.9146 H       
  56 H56          -11.5183     8.7709    -1.4479 H       
  57 H57          -12.2455     8.3747     0.1277 H       
  58 H58          -13.2379    10.4487    -0.7131 H       
  59 H59          -12.2211    10.8210     0.6996 H       
  60 H60          -11.9268    13.1092    -0.1152 H       
  61 H61          -11.2846    13.3388    -1.7594 H       
  62 H62          -12.9436    12.7368    -1.5279 H       
@<TRIPOS>BOND
   1    1    2 ar
   2    1   29 1
   3    1    6 ar
   4    2    3 ar
   5    2   31 1
   6    3    4 ar
   7    3   32 1
   8    4    5 ar
   9    4    7 1
  10    5    6 ar
  11    5    9 1
  12    6   33 1
  13    7    8 am
  14    7   34 1
  15    8    9 am
  16    8   10 2
  17    9   11 1
  18   11   12 1
  19   11   16 1
  20   11   35 1
  21   12   13 1
  22   12   36 1
  23   12   37 1
  24   13   14 1
  25   13   38 1
  26   13   39 1
  27   14   15 1
  28   14   17 1
  29   15   16 1
  30   15   40 1
  31   15   41 1
  32   16   42 1
  33   16   43 1
  34   17   18 1
  35   17   23 1
  36   17   22 1
  37   18   19 1
  38   18   44 1
  39   18   45 1
  40   19   20 1
  41   19   46 1
  42   19   47 1
  43   20   21 1
  44   20   24 1
  45   20   48 1
  46   21   22 1
  47   21   49 1
  48   21   50 1
  49   22   51 1
  50   22   52 1
  51   23   53 1
  52   23   54 1
  53   23   55 1
  54   24   25 1
  55   25   26 1
  56   25   56 1
  57   25   57 1
  58   26   27 1
  59   26   58 1
  60   26   59 1
  61   27   28 1
  62   28   60 1
  63   28   61 1
  64   28   62 1
  65   29   30 3

#	End of record

