#	Name: ASD01918476
#	Creating user name:	WinNT
#	Creation time:	15. 06. 2019 20:11

#	Modifying user name:	WinNT
#	Modification time:	15. 06. 2019 20:11

#	Program:	/corina/corina34_cracker 3.40 0067  02.08.2006

@<TRIPOS>MOLECULE
ASD01918476
  41   44    0    0    0
SMALL
NO_CHARGES


@<TRIPOS>ATOM
   1 F1             0.0021    -0.0041     0.0020 F       
   2 C2            -0.0169     1.3948     0.0097 C.3     
   3 F3            -1.0741     1.9877    -0.6889 F       
   4 C4             0.4802     2.1011     1.2726 C.3     
   5 C5             1.3305     2.1196     0.0007 C.3     
   6 H6             1.3931     3.0587    -0.5491 H       
   7 C7             2.5955     1.2592    -0.0160 C.3     
   8 N8             3.7719     2.1229    -0.1429 N.am    
   9 C9             4.2645     2.4617    -1.4728 C.3     
  10 C10            4.7482     3.9073    -1.5728 C.3     
  11 N11            5.6226     4.2050    -0.4328 N.pl3   
  12 N12            6.6073     5.0106    -0.3444 N.2     
  13 C13            7.1307     4.9823     0.8592 C.2     
  14 C14            8.3057     5.7977     1.3340 C.3     
  15 O15            8.5771     5.4899     2.7028 O.3     
  16 C16            9.6144     6.1441     3.2884 C.ar    
  17 C17           10.3522     7.0677     2.5621 C.ar    
  18 C18           11.4058     7.7317     3.1598 C.ar    
  19 C19           11.7256     7.4763     4.4805 C.ar    
  20 C20           10.9922     6.5560     5.2063 C.ar    
  21 C21            9.9337     5.8938     4.6150 C.ar    
  22 C22            6.4039     4.0604     1.6249 C.2     
  23 C23            5.4458     3.5766     0.7805 C.2     
  24 C24            4.3719     2.5914     0.9791 C.2     
  25 O25            4.0430     2.2156     2.0881 O.2     
  26 H26           -0.0165     3.0280     1.5595 H       
  27 H27            0.8221     1.4759     2.0974 H       
  28 H28            2.6605     0.6907     0.9118 H       
  29 H29            2.5563     0.5720    -0.8611 H       
  30 H30            5.0909     1.7962    -1.7220 H       
  31 H31            3.4623     2.3084    -2.1946 H       
  32 H32            5.3024     4.0422    -2.5016 H       
  33 H33            3.8905     4.5799    -1.5590 H       
  34 H34            9.1805     5.5614     0.7281 H       
  35 H35            8.0739     6.8585     1.2392 H       
  36 H36           10.1032     7.2670     1.5303 H       
  37 H37           11.9805     8.4508     2.5949 H       
  38 H38           12.5499     7.9962     4.9458 H       
  39 H39           11.2442     6.3579     6.2376 H       
  40 H40            9.3583     5.1782     5.1837 H       
  41 H41            6.5662     3.7912     2.6582 H       
@<TRIPOS>BOND
   1    1    2 1
   2    2    5 1
   3    2    3 1
   4    2    4 1
   5    4    5 1
   6    4   26 1
   7    4   27 1
   8    5    6 1
   9    5    7 1
  10    7    8 1
  11    7   28 1
  12    7   29 1
  13    8   24 am
  14    8    9 1
  15    9   10 1
  16    9   30 1
  17    9   31 1
  18   10   11 1
  19   10   32 1
  20   10   33 1
  21   11   23 1
  22   11   12 1
  23   12   13 2
  24   13   14 1
  25   13   22 1
  26   14   15 1
  27   14   34 1
  28   14   35 1
  29   15   16 1
  30   16   21 ar
  31   16   17 ar
  32   17   18 ar
  33   17   36 1
  34   18   19 ar
  35   18   37 1
  36   19   20 ar
  37   19   38 1
  38   20   21 ar
  39   20   39 1
  40   21   40 1
  41   22   23 2
  42   22   41 1
  43   23   24 1
  44   24   25 2

#	End of record

