#	Name: ASD05790008
#	Creating user name:	WinNT
#	Creation time:	15. 06. 2019 21:03

#	Modifying user name:	WinNT
#	Modification time:	15. 06. 2019 21:03

#	Program:	/corina/corina34_cracker 3.40 0067  02.08.2006

@<TRIPOS>MOLECULE
ASD05790008
  48   51    0    0    0
SMALL
NO_CHARGES


@<TRIPOS>ATOM
   1 C1            -0.2641     1.8824    -0.8142 C.2     
   2 C2            -0.1687     0.4074    -0.8121 C.ar    
   3 C3             0.7130    -0.2394    -1.6800 C.ar    
   4 C4             0.7975    -1.6161    -1.6726 C.ar    
   5 C5             0.0106    -2.3561    -0.8075 C.ar    
   6 C6            -0.8652    -1.7214     0.0551 C.ar    
   7 C7            -0.9556    -0.3447     0.0616 C.ar    
   8 O8             0.4992     2.5399    -1.4945 O.2     
   9 N9            -1.2010     2.4982    -0.0661 N.am    
  10 C10           -1.2231     3.8918     0.0168 C.ar    
  11 C11           -2.4361     4.5603     0.1414 C.ar    
  12 C12           -2.4614     5.9352     0.2239 C.ar    
  13 C13           -1.2669     6.6578     0.1823 C.ar    
  14 C14           -0.0504     5.9834     0.0572 C.ar    
  15 C15           -0.0316     4.6080    -0.0195 C.ar    
  16 O16           -2.3933     8.8912     0.3922 O.3     
  17 C17           -1.2904     8.1323     0.2701 C.2     
  18 N18           -0.2386     8.9151     0.2424 N.2     
  19 C19           -0.6524    10.1952     0.3468 C.2     
  20 C20           -2.0060    10.1806     0.4409 C.2     
  21 C21           -2.9068    11.3813     0.5744 C.3     
  22 F22           -3.2778    11.8297    -0.6978 F       
  23 F23           -4.0517    11.0273     1.2963 F       
  24 F24           -2.2273    12.4015     1.2487 F       
  25 C25            0.2147    11.3994     0.3569 C.ar    
  26 C26            1.4701    11.3521     0.9598 C.ar    
  27 C27            2.2724    12.4751     0.9662 C.ar    
  28 C28            1.8323    13.6460     0.3757 C.ar    
  29 C29            0.5871    13.6986    -0.2242 C.ar    
  30 C30           -0.2211    12.5799    -0.2415 C.ar    
  31 C31            1.5703     0.5647    -2.6231 C.3     
  32 H32            1.4789    -2.1178    -2.3437 H       
  33 H33            0.0803    -3.4338    -0.8060 H       
  34 H34           -1.4764    -2.3047     0.7278 H       
  35 H35           -1.6365     0.1498     0.7386 H       
  36 H36           -1.8598     1.9732     0.4147 H       
  37 H37           -3.3595     4.0009     0.1731 H       
  38 H38           -3.4038     6.4538     0.3202 H       
  39 H39            0.8750     6.5393     0.0247 H       
  40 H40            0.9091     4.0857    -0.1122 H       
  41 H41            1.8144    10.4385     1.4214 H       
  42 H42            3.2454    12.4397     1.4335 H       
  43 H43            2.4633    14.5225     0.3834 H       
  44 H44            0.2483    14.6155    -0.6835 H       
  45 H45           -1.1913    12.6207    -0.7144 H       
  46 H46            2.4609     0.9112    -2.0988 H       
  47 H47            1.8652    -0.0587    -3.4672 H       
  48 H48            1.0049     1.4233    -2.9856 H       
@<TRIPOS>BOND
   1    1    2 1
   2    1    8 2
   3    1    9 am
   4    2    3 ar
   5    2    7 ar
   6    3    4 ar
   7    3   31 1
   8    4    5 ar
   9    4   32 1
  10    5    6 ar
  11    5   33 1
  12    6    7 ar
  13    6   34 1
  14    7   35 1
  15    9   10 1
  16    9   36 1
  17   10   11 ar
  18   10   15 ar
  19   11   12 ar
  20   11   37 1
  21   12   13 ar
  22   12   38 1
  23   13   14 ar
  24   13   17 1
  25   14   15 ar
  26   14   39 1
  27   15   40 1
  28   16   17 1
  29   16   20 1
  30   17   18 2
  31   18   19 1
  32   19   20 2
  33   19   25 1
  34   20   21 1
  35   21   22 1
  36   21   23 1
  37   21   24 1
  38   25   26 ar
  39   25   30 ar
  40   26   27 ar
  41   26   41 1
  42   27   28 ar
  43   27   42 1
  44   28   29 ar
  45   28   43 1
  46   29   30 ar
  47   29   44 1
  48   30   45 1
  49   31   46 1
  50   31   47 1
  51   31   48 1

#	End of record

