#	Name: ASD09740598
#	Creating user name:	WinNT
#	Creation time:	15. 06. 2019 21:23

#	Modifying user name:	WinNT
#	Modification time:	15. 06. 2019 21:23

#	Program:	/corina/corina34_cracker 3.40 0067  02.08.2006

@<TRIPOS>MOLECULE
ASD09740598
  61   64    0    0    0
SMALL
NO_CHARGES


@<TRIPOS>ATOM
   1 N1            -0.0875     1.3324    -0.0179 N.2     
   2 C2            -0.1184     0.0237    -0.0597 C.2     
   3 C3             1.0839     1.8983     0.0649 C.2     
   4 S4             2.3293     0.6530     0.0963 S.3     
   5 C5             1.0842    -0.5899    -0.0114 C.2     
   6 C6             1.3284     3.3544     0.1225 C.ar    
   7 C7             0.2560     4.2425     0.0896 C.ar    
   8 C8             2.6359     3.8406     0.2159 C.ar    
   9 C9             2.8697     5.1977     0.2704 C.ar    
  10 C10            1.8093     6.0917     0.2334 C.ar    
  11 C11            0.4926     5.6151     0.1447 C.ar    
  12 O12            2.0453     7.4265     0.2882 O.3     
  13 C13            3.3965     7.8382     0.5043 C.3     
  14 C14            4.1364     7.8825    -0.8342 C.3     
  15 C15            3.4103     9.2294     1.1409 C.3     
  16 C16           -0.6037     6.5355     0.1059 C.1     
  17 N17           -1.4735     7.2656     0.0752 N.1     
  18 C18            1.3156    -2.0493    -0.0432 C.ar    
  19 C19            2.2434    -2.5915    -0.9372 C.ar    
  20 C20            2.4547    -3.9547    -0.9620 C.ar    
  21 C21            1.7475    -4.7800    -0.1016 C.ar    
  22 C22            0.8284    -4.2487     0.7842 C.ar    
  23 C23            0.6123    -2.8870     0.8229 C.ar    
  24 C24            3.1282    -1.9161    -1.9628 C.3     
  25 C25            4.2124    -2.9586    -2.3093 C.3     
  26 C26            3.4969    -4.2923    -2.0070 C.3     
  27 N27            2.8540    -4.8101    -3.2173 N.am    
  28 S28            3.3762    -6.2308    -3.8891 S.o2    
  29 O29            2.5566    -6.3973    -5.0379 O.2     
  30 O30            4.7823    -6.0652    -4.0101 O.2     
  31 C31            2.9885    -7.4903    -2.6425 C.3     
  32 C32            3.5380    -8.8440    -3.0972 C.3     
  33 O33            3.2326    -9.8362    -2.1153 O.3     
  34 C34            3.7042   -11.1443    -2.4445 C.3     
  35 H35           -1.0440    -0.5284    -0.1280 H       
  36 H36           -0.7551     3.8691     0.0212 H       
  37 H37            3.4658     3.1500     0.2458 H       
  38 H38            3.8822     5.5667     0.3424 H       
  39 H39            3.8904     7.1295     1.1691 H       
  40 H40            5.1671     8.1965    -0.6694 H       
  41 H41            4.1266     6.8914    -1.2877 H       
  42 H42            3.6425     8.5912    -1.4990 H       
  43 H43            2.8832     9.1978     2.0945 H       
  44 H44            4.4410     9.5434     1.3057 H       
  45 H45            2.9164     9.9381     0.4761 H       
  46 H46            1.9155    -5.8466    -0.1236 H       
  47 H47            0.2823    -4.9004     1.4501 H       
  48 H48           -0.1053    -2.4716     1.5149 H       
  49 H49            2.5507    -1.6613    -2.8514 H       
  50 H50            3.5850    -1.0221    -1.5383 H       
  51 H51            4.4875    -2.8964    -3.3622 H       
  52 H52            5.0873    -2.8347    -1.6711 H       
  53 H53            4.2054    -5.0208    -1.6129 H       
  54 H54            2.1225    -4.3208    -3.6252 H       
  55 H55            3.4450    -7.2136    -1.6922 H       
  56 H56            1.9077    -7.5596    -2.5199 H       
  57 H57            3.0815    -9.1207    -4.0476 H       
  58 H58            4.6188    -8.7747    -3.2198 H       
  59 H59            3.2512   -11.4688    -3.3813 H       
  60 H60            4.7886   -11.1228    -2.5536 H       
  61 H61            3.4327   -11.8391    -1.6498 H       
@<TRIPOS>BOND
   1    1    2 1
   2    1    3 2
   3    2    5 2
   4    2   35 1
   5    3    4 1
   6    3    6 1
   7    4    5 1
   8    5   18 1
   9    6    7 ar
  10    6    8 ar
  11    7   11 ar
  12    7   36 1
  13    8    9 ar
  14    8   37 1
  15    9   10 ar
  16    9   38 1
  17   10   11 ar
  18   10   12 1
  19   11   16 1
  20   12   13 1
  21   13   14 1
  22   13   15 1
  23   13   39 1
  24   14   40 1
  25   14   41 1
  26   14   42 1
  27   15   43 1
  28   15   44 1
  29   15   45 1
  30   16   17 3
  31   18   19 ar
  32   18   23 ar
  33   19   20 ar
  34   19   24 1
  35   20   21 ar
  36   20   26 1
  37   21   22 ar
  38   21   46 1
  39   22   23 ar
  40   22   47 1
  41   23   48 1
  42   24   25 1
  43   24   49 1
  44   24   50 1
  45   25   26 1
  46   25   51 1
  47   25   52 1
  48   26   27 1
  49   26   53 1
  50   27   28 am
  51   27   54 1
  52   28   29 2
  53   28   30 2
  54   28   31 1
  55   31   32 1
  56   31   55 1
  57   31   56 1
  58   32   33 1
  59   32   57 1
  60   32   58 1
  61   33   34 1
  62   34   59 1
  63   34   60 1
  64   34   61 1

#	End of record

