#	Name: ASD08070273
#	Creating user name:	WinNT
#	Creation time:	15. 06. 2019 21:14

#	Modifying user name:	WinNT
#	Modification time:	15. 06. 2019 21:14

#	Program:	/corina/corina34_cracker 3.40 0067  02.08.2006

@<TRIPOS>MOLECULE
ASD08070273
  36   39    0    0    0
SMALL
NO_CHARGES


@<TRIPOS>ATOM
   1 O1            -0.0174     1.4354     0.0099 O.3     
   2 C2             0.0021    -0.0041     0.0020 C.3     
   3 O3             1.2438    -0.3266    -0.6516 O.3     
   4 C4             2.0691     0.7335    -0.4081 C.ar    
   5 C5             1.2912     1.8185    -0.0005 C.ar    
   6 C6             3.4405     0.8644    -0.5021 C.ar    
   7 C7             4.0472     2.0838    -0.1884 C.ar    
   8 C8             3.2633     3.1655     0.2189 C.ar    
   9 C9             1.8951     3.0290     0.3108 C.ar    
  10 C10            5.5130     2.2278    -0.2870 C.2     
  11 O11            6.1940     1.2850    -0.6414 O.2     
  12 N12            6.0963     3.4045     0.0159 N.am    
  13 C13            7.5510     3.5474    -0.0820 C.3     
  14 C14            7.9297     5.0264    -0.3093 C.3     
  15 C15            8.1562     5.5353     1.1302 C.3     
  16 C16            8.5532     4.3101     1.9256 C.ar    
  17 C17            9.1699     4.2032     3.1611 C.ar    
  18 C18            9.4381     2.9597     3.6987 C.ar    
  19 C19            9.0903     1.8172     3.0020 C.ar    
  20 C20            8.4753     1.9218     1.7699 C.ar    
  21 C21            8.2054     3.1680     1.2291 C.ar    
  22 H22           -0.0068    -0.3927     1.0203 H       
  23 H23           -0.8422    -0.3953    -0.5656 H       
  24 H24            4.0435     0.0256    -0.8171 H       
  25 H25            3.7294     4.1089     0.4620 H       
  26 H26            1.2906     3.8668     0.6257 H       
  27 H27            5.5530     4.1566     0.2986 H       
  28 H28            7.9376     2.9292    -0.8922 H       
  29 H29            8.8443     5.1062    -0.8969 H       
  30 H30            7.1124     5.5666    -0.7871 H       
  31 H31            8.9575     6.2740     1.1485 H       
  32 H32            7.2367     5.9636     1.5290 H       
  33 H33            9.4422     5.0951     3.7057 H       
  34 H34            9.9194     2.8797     4.6622 H       
  35 H35            9.2996     0.8440     3.4208 H       
  36 H36            8.2038     1.0290     1.2263 H       
@<TRIPOS>BOND
   1    1    2 1
   2    1    5 1
   3    2    3 1
   4    2   22 1
   5    2   23 1
   6    3    4 1
   7    4    5 ar
   8    4    6 ar
   9    5    9 ar
  10    6    7 ar
  11    6   24 1
  12    7    8 ar
  13    7   10 1
  14    8    9 ar
  15    8   25 1
  16    9   26 1
  17   10   11 2
  18   10   12 am
  19   12   13 1
  20   12   27 1
  21   13   14 1
  22   13   21 1
  23   13   28 1
  24   14   15 1
  25   14   29 1
  26   14   30 1
  27   15   16 1
  28   15   31 1
  29   15   32 1
  30   16   17 ar
  31   16   21 ar
  32   17   18 ar
  33   17   33 1
  34   18   19 ar
  35   18   34 1
  36   19   20 ar
  37   19   35 1
  38   20   21 ar
  39   20   36 1

#	End of record

