#	Name: ASD01200328
#	Creating user name:	WinNT
#	Creation time:	15. 06. 2019 19:08

#	Modifying user name:	WinNT
#	Modification time:	15. 06. 2019 19:08

#	Program:	/corina/corina34_cracker 3.40 0067  02.08.2006

@<TRIPOS>MOLECULE
ASD01200328
  25   26    0    0    0
SMALL
NO_CHARGES


@<TRIPOS>ATOM
   1 N1            -0.2097     1.2294    -0.3845 N.ar    
   2 C2            -0.1238    -0.0730    -0.2026 C.ar    
   3 C3             1.0973    -0.7252    -0.3169 C.ar    
   4 C4             2.2335     0.0177    -0.6273 C.ar    
   5 C5             2.0966     1.3842    -0.8100 C.ar    
   6 C6             0.8473     1.9611    -0.6794 C.ar    
   7 N7             1.1845    -2.1076    -0.1226 N.am    
   8 C8             2.4363    -2.8107    -0.4140 C.3     
   9 C9             0.1169    -2.7928     0.3326 C.2     
  10 O10           -0.9155    -2.2050     0.5983 O.2     
  11 C11            0.1988    -4.2440     0.5077 C.2     
  12 C12           -0.8595    -5.0744     0.7570 C.2     
  13 C13           -0.4967    -6.3968     0.8716 C.2     
  14 C14            0.8099    -6.6418     0.7220 C.2     
  15 S15            1.6720    -5.2001     0.4236 S.3     
  16 Cl16          -2.4957    -4.5159     0.9136 Cl      
  17 H17           -1.0117    -0.6389     0.0381 H       
  18 H18            3.1977    -0.4595    -0.7229 H       
  19 H19            2.9563     1.9918    -1.0514 H       
  20 H20            0.7350     3.0258    -0.8212 H       
  21 H21            3.0086    -2.9300     0.5060 H       
  22 H22            2.2128    -3.7920    -0.8327 H       
  23 H23            3.0187    -2.2334    -1.1320 H       
  24 H24           -1.2143    -7.1796     1.0684 H       
  25 H25            1.2592    -7.6220     0.7821 H       
@<TRIPOS>BOND
   1    1    2 ar
   2    1    6 ar
   3    2    3 ar
   4    2   17 1
   5    3    4 ar
   6    3    7 1
   7    4    5 ar
   8    4   18 1
   9    5    6 ar
  10    5   19 1
  11    6   20 1
  12    7    8 1
  13    7    9 am
  14    8   21 1
  15    8   22 1
  16    8   23 1
  17    9   10 2
  18    9   11 1
  19   11   12 2
  20   11   15 1
  21   12   13 1
  22   12   16 1
  23   13   14 2
  24   13   24 1
  25   14   15 1
  26   14   25 1

#	End of record

