#	Name: ASD01811631
#	Creating user name:	WinNT
#	Creation time:	15. 06. 2019 19:27

#	Modifying user name:	WinNT
#	Modification time:	15. 06. 2019 19:27

#	Program:	/corina/corina34_cracker 3.40 0067  02.08.2006

@<TRIPOS>MOLECULE
ASD01811631
  70   75    0    0    0
SMALL
NO_CHARGES


@<TRIPOS>ATOM
   1 C1            -0.0167     1.3785     0.0096 C.ar    
   2 C2             0.0021    -0.0041     0.0020 C.ar    
   3 C3             1.2023    -0.6845    -0.0123 C.ar    
   4 C4             2.4052     0.0177    -0.0194 C.ar    
   5 C5             2.3734     1.4081    -0.0131 C.ar    
   6 C6             1.1742     2.0838     0.0020 C.ar    
   7 N7             3.7256    -0.4347    -0.0324 N.am    
   8 C8             4.6104     0.5783    -0.0368 C.2     
   9 C9             3.8112     1.8594    -0.0264 C.3     
  10 C10            4.1049     2.6783    -1.2805 C.3     
  11 C11            5.5663     3.1356    -1.2545 C.3     
  12 N12            5.8094     3.9295    -0.0436 N.3     
  13 C13            5.5909     3.1321     1.1700 C.3     
  14 C14            4.1306     2.6742     1.2242 C.3     
  15 C15            7.1590     4.5095    -0.0565 C.3     
  16 C16            7.3126     5.4187    -1.2779 C.3     
  17 N17            8.6545     6.0153    -1.2799 N.3     
  18 C18            8.8668     6.8487    -0.0896 C.3     
  19 C19            8.7596     5.9821     1.1672 C.3     
  20 C20            7.3739     5.3325     1.2166 C.3     
  21 C21            8.8867     6.7847    -2.5096 C.3     
  22 O22            5.8194     0.4814    -0.0469 O.2     
  23 C23            4.1041    -1.8500    -0.0394 C.3     
  24 C24            4.2218    -2.3314    -1.4626 C.ar    
  25 C25            5.3671    -2.0561    -2.1923 C.ar    
  26 C26            5.4790    -2.4964    -3.4978 C.ar    
  27 C27            4.4380    -3.2172    -4.0781 C.ar    
  28 C28            3.2893    -3.4906    -3.3391 C.ar    
  29 C29            3.1890    -3.0512    -2.0342 C.ar    
  30 F30            6.3753    -1.3563    -1.6274 F       
  31 C31            4.5521    -3.6923    -5.4802 C.2     
  32 C32            5.6485    -3.4902    -6.3408 C.2     
  33 N33            5.3749    -4.0559    -7.4866 N.2     
  34 N34            4.1037    -4.6367    -7.4035 N.pl3   
  35 C35            3.6164    -4.4093    -6.1672 C.2     
  36 C36            3.4229    -5.3700    -8.4736 C.3     
  37 H37           -0.9586     1.9069     0.0170 H       
  38 H38           -0.9274    -0.5541     0.0077 H       
  39 H39            1.2091    -1.7645    -0.0177 H       
  40 H40            1.1626     3.1637     0.0083 H       
  41 H41            3.9311     2.0650    -2.1646 H       
  42 H42            3.4512     3.5501    -1.3073 H       
  43 H43            6.2199     2.2633    -1.2544 H       
  44 H44            5.7723     3.7439    -2.1352 H       
  45 H45            6.2447     2.2601     1.1544 H       
  46 H46            5.8145     3.7381     2.0480 H       
  47 H47            3.4773     3.5457     1.2675 H       
  48 H48            3.9750     2.0578     2.1097 H       
  49 H49            7.8983     3.7099    -0.1028 H       
  50 H50            7.1743     4.8328    -2.1865 H       
  51 H51            6.5636     6.2096    -1.2384 H       
  52 H52            9.8574     7.3013    -0.1352 H       
  53 H53            8.1106     7.6329    -0.0557 H       
  54 H54            9.5246     5.2061     1.1406 H       
  55 H55            8.9018     6.6039     2.0511 H       
  56 H56            6.6104     6.1076     1.2825 H       
  57 H57            7.3082     4.6803     2.0875 H       
  58 H58            8.1489     7.5836    -2.5830 H       
  59 H59            9.8876     7.2155    -2.4850 H       
  60 H60            8.7959     6.1257    -3.3731 H       
  61 H61            5.0621    -1.9724     0.4659 H       
  62 H62            3.3427    -2.4323     0.4793 H       
  63 H63            6.3715    -2.2816    -4.0668 H       
  64 H64            2.4796    -4.0488    -3.7853 H       
  65 H65            2.2985    -3.2635    -1.4611 H       
  66 H66            6.5569    -2.9595    -6.0966 H       
  67 H67            2.6565    -4.7307    -5.7909 H       
  68 H68            3.6758    -6.4281    -8.4069 H       
  69 H69            2.3449    -5.2468    -8.3696 H       
  70 H70            3.7415    -4.9806    -9.4406 H       
@<TRIPOS>BOND
   1    1    2 ar
   2    1    6 ar
   3    1   37 1
   4    2    3 ar
   5    2   38 1
   6    3    4 ar
   7    3   39 1
   8    4    5 ar
   9    4    7 1
  10    5    6 ar
  11    5    9 1
  12    6   40 1
  13    7    8 am
  14    7   23 1
  15    8    9 1
  16    8   22 2
  17    9   10 1
  18    9   14 1
  19   10   11 1
  20   10   41 1
  21   10   42 1
  22   11   12 1
  23   11   43 1
  24   11   44 1
  25   12   13 1
  26   12   15 1
  27   13   14 1
  28   13   45 1
  29   13   46 1
  30   14   47 1
  31   14   48 1
  32   15   16 1
  33   15   20 1
  34   15   49 1
  35   16   17 1
  36   16   50 1
  37   16   51 1
  38   17   18 1
  39   17   21 1
  40   18   19 1
  41   18   52 1
  42   18   53 1
  43   19   20 1
  44   19   54 1
  45   19   55 1
  46   20   56 1
  47   20   57 1
  48   21   58 1
  49   21   59 1
  50   21   60 1
  51   23   24 1
  52   23   61 1
  53   23   62 1
  54   24   25 ar
  55   24   29 ar
  56   25   26 ar
  57   25   30 1
  58   26   27 ar
  59   26   63 1
  60   27   28 ar
  61   27   31 1
  62   28   29 ar
  63   28   64 1
  64   29   65 1
  65   31   32 1
  66   31   35 2
  67   32   33 2
  68   32   66 1
  69   33   34 1
  70   34   35 1
  71   34   36 1
  72   35   67 1
  73   36   68 1
  74   36   69 1
  75   36   70 1

#	End of record

