#	Name: ASD01868001
#	Creating user name:	WinNT
#	Creation time:	15. 06. 2019 19:38

#	Modifying user name:	WinNT
#	Modification time:	15. 06. 2019 19:38

#	Program:	/corina/corina34_cracker 3.40 0067  02.08.2006

@<TRIPOS>MOLECULE
ASD01868001
  10    9    0    0    0
SMALL
NO_CHARGES


@<TRIPOS>ATOM
   1 C1            -0.0184     1.5028     0.0103 C.2     
   2 C2             0.0021    -0.0041     0.0020 C.3     
   3 C3             0.6216    -0.5051     1.2812 C.2     
   4 O4             1.0291     2.1267     0.0037 O.co2   
   5 O5            -1.0824     2.0980     0.0186 O.co2   
   6 O6            -0.0496    -1.1425     2.0747 O.co2   
   7 O7             1.7939    -0.2730     1.5225 O.co2   
   8 O8            -1.3345    -0.4980    -0.1053 O.3     
   9 H9             0.5883    -0.3548    -0.8473 H       
  10 H10           -1.9143    -0.2245     0.6187 H       
@<TRIPOS>BOND
   1    1    2 1
   2    1    4 ar
   3    1    5 ar
   4    2    3 1
   5    2    8 1
   6    2    9 1
   7    3    6 ar
   8    3    7 ar
   9    8   10 1

#	End of record

