#	Name: ASD01885424
#	Creating user name:	WinNT
#	Creation time:	15. 06. 2019 19:49

#	Modifying user name:	WinNT
#	Modification time:	15. 06. 2019 19:49

#	Program:	/corina/corina34_cracker 3.40 0067  02.08.2006

@<TRIPOS>MOLECULE
ASD01885424
  48   51    0    0    0
SMALL
NO_CHARGES


@<TRIPOS>ATOM
   1 C1            -0.0387     1.4167     0.0072 C.ar    
   2 C2            -0.0161     0.0212     0.0397 C.ar    
   3 N3            -1.1307    -0.7508     0.0521 N.2     
   4 C4            -2.1918    -0.5676    -0.6472 C.2     
   5 C5            -2.3337     0.6067    -1.5797 C.3     
   6 C6            -2.2855     1.8690    -0.7564 C.2     
   7 N7            -1.2068     2.1680    -0.0336 N.am    
   8 C8             1.1632     2.1195     0.0093 C.ar    
   9 C9             2.3792     1.4404     0.0380 C.ar    
  10 C10            2.3930     0.0424     0.0649 C.ar    
  11 C11            1.2211    -0.6500     0.0658 C.ar    
  12 C12           -3.2991    -1.5313    -0.5349 C.ar    
  13 O13           -3.2377     2.6203    -0.7534 O.2     
  14 C14           -3.1341    -2.7063     0.2063 C.ar    
  15 C15           -4.1718    -3.6104     0.3120 C.ar    
  16 C16           -5.3787    -3.3628    -0.3117 C.ar    
  17 C17           -5.5586    -2.1933    -1.0558 C.ar    
  18 C18           -4.5187    -1.2726    -1.1631 C.ar    
  19 C19           -6.8112    -1.9393    -1.7015 C.1     
  20 N20           -7.8049    -1.7378    -2.2138 N.1     
  21 C21            3.6487     2.1940     0.0395 C.2     
  22 O22            3.6341     3.4096     0.0157 O.2     
  23 N23            4.8238     1.5346     0.0673 N.am    
  24 C24            6.0836     2.2824     0.0688 C.3     
  25 C25            7.2406     1.3174     0.1023 C.ar    
  26 C26            7.7865     0.8515    -1.0791 C.ar    
  27 C27            8.8477    -0.0337    -1.0484 C.ar    
  28 C28            9.3634    -0.4527     0.1638 C.ar    
  29 C29            8.8181     0.0139     1.3453 C.ar    
  30 C30            7.7596     0.9025     1.3145 C.ar    
  31 H31           -1.5155     0.6057    -2.2998 H       
  32 H32           -3.2869     0.5462    -2.1050 H       
  33 H33           -1.2398     2.9714     0.5088 H       
  34 H34            1.1527     3.1992    -0.0119 H       
  35 H35            3.3336    -0.4880     0.0846 H       
  36 H36            1.2406    -1.7296     0.0865 H       
  37 H37           -2.1929    -2.9066     0.6965 H       
  38 H38           -4.0391    -4.5160     0.8852 H       
  39 H39           -6.1858    -4.0751    -0.2247 H       
  40 H40           -4.6525    -0.3672    -1.7364 H       
  41 H41            4.8354     0.5649     0.0863 H       
  42 H42            6.1451     2.8923    -0.8325 H       
  43 H43            6.1224     2.9269     0.9470 H       
  44 H44            7.3836     1.1789    -2.0262 H       
  45 H45            9.2738    -0.3983    -1.9714 H       
  46 H46           10.1921    -1.1449     0.1879 H       
  47 H47            9.2207    -0.3137     2.2923 H       
  48 H48            7.3336     1.2670     2.2375 H       
@<TRIPOS>BOND
   1    1    2 ar
   2    1    8 ar
   3    1    7 1
   4    2    3 1
   5    2   11 ar
   6    3    4 2
   7    4    5 1
   8    4   12 1
   9    5    6 1
  10    5   31 1
  11    5   32 1
  12    6    7 am
  13    6   13 2
  14    7   33 1
  15    8    9 ar
  16    8   34 1
  17    9   10 ar
  18    9   21 1
  19   10   11 ar
  20   10   35 1
  21   11   36 1
  22   12   14 ar
  23   12   18 ar
  24   14   15 ar
  25   14   37 1
  26   15   16 ar
  27   15   38 1
  28   16   17 ar
  29   16   39 1
  30   17   18 ar
  31   17   19 1
  32   18   40 1
  33   19   20 3
  34   21   22 2
  35   21   23 am
  36   23   24 1
  37   23   41 1
  38   24   25 1
  39   24   42 1
  40   24   43 1
  41   25   26 ar
  42   25   30 ar
  43   26   27 ar
  44   26   44 1
  45   27   28 ar
  46   27   45 1
  47   28   29 ar
  48   28   46 1
  49   29   30 ar
  50   29   47 1
  51   30   48 1

#	End of record

