#	Name: ASD01140539
#	Creating user name:	WinNT
#	Creation time:	15. 06. 2019 19:01

#	Modifying user name:	WinNT
#	Modification time:	15. 06. 2019 19:01

#	Program:	/corina/corina34_cracker 3.40 0067  02.08.2006

@<TRIPOS>MOLECULE
ASD01140539
 121  123    0    0    0
SMALL
NO_CHARGES


@<TRIPOS>ATOM
   1 O1             1.1577     0.2713     0.3433 O.3     
   2 O2             3.3118    -1.6239    -2.0223 O.3     
   3 O3            -0.1474    -1.2541     2.3912 O.3     
   4 O4             3.0978     0.3430     1.6384 O.3     
   5 O5             4.8912    -1.6202    -0.3112 O.3     
   6 O6             1.3528    -5.9493    -1.7931 O.3     
   7 O7             7.9105    -0.5033    -2.8499 O.3     
   8 O8             1.9605     2.6898    -0.9353 O.3     
   9 O9             7.4906     0.0700    -0.3571 O.3     
  10 O10            0.0930    -8.5451     0.4489 O.3     
  11 O11            1.3760    -6.4872     1.8551 O.3     
  12 O12           -0.9843    -4.6388     3.6604 O.2     
  13 O13            3.1076    -5.0414    -0.7933 O.2     
  14 N14            3.9442     4.2592     0.4459 N.3     
  15 C15            1.0505    -1.1539     0.3013 C.3     
  16 C16            1.0644    -1.6297    -1.1501 C.3     
  17 C17           -0.2416    -1.5871     0.9996 C.3     
  18 C18            2.3293    -2.4556    -1.4044 C.3     
  19 C19           -0.4042    -3.0978     0.8509 C.3     
  20 C20            2.0050    -3.6314    -2.3253 C.3     
  21 C21           -1.6040    -3.6181     1.6385 C.3     
  22 C22            2.5022     0.7515     0.4053 C.3     
  23 C23            1.0685    -0.4154    -2.0844 C.3     
  24 C24           -1.4326    -0.8459     0.3932 C.3     
  25 C25            4.6610    -1.9589    -1.6747 C.3     
  26 C26            7.0649    -1.4556    -2.1727 C.3     
  27 C27            2.5027     2.2801     0.3217 C.3     
  28 C28            3.9414     2.7902     0.4493 C.3     
  29 C29            5.6181    -1.1520    -2.5521 C.3     
  30 C30            7.3002    -1.3180    -0.6757 C.3     
  31 C31           -1.0058    -6.1721     1.8801 C.3     
  32 C32            0.1767    -7.2312    -0.0986 C.3     
  33 C33            4.5377     2.2797     1.7647 C.3     
  34 C34            0.2520    -6.1933     1.0167 C.3     
  35 C35           -1.1834    -4.7974     2.4758 C.2     
  36 C36            6.1896    -1.8804     0.1943 C.3     
  37 C37            4.4586     0.7511     1.7925 C.3     
  38 C38            1.4553    -7.1227    -0.9477 C.3     
  39 C39            2.1970    -4.9313    -1.5835 C.2     
  40 C40            2.9418    -3.6072    -3.5360 C.3     
  41 C41           -2.7177    -4.0329     0.6749 C.3     
  42 C42            7.4562    -2.8522    -2.6620 C.3     
  43 C43           -0.8312    -7.1721     3.0359 C.3     
  44 C44           -1.0263    -6.9704    -1.0064 C.3     
  45 C45            1.5858    -8.3776    -1.8142 C.3     
  46 C46            0.9254    -1.9063     3.0736 C.3     
  47 C47            6.3853    -3.3766     0.4436 C.3     
  48 C48            4.9973     0.2365     3.1289 C.3     
  49 C49            3.3249     4.7896     1.6679 C.3     
  50 C50            5.3061     4.7827     0.2760 C.3     
  51 C51            2.9034    -8.3269    -2.5901 C.3     
  52 C52            7.8087    -0.5457    -4.2747 C.3     
  53 H53            1.9052    -1.5884     0.8303 H       
  54 H54            0.1896    -2.2384    -1.3598 H       
  55 H55            2.7165    -2.8251    -0.4577 H       
  56 H56           -0.5209    -3.3601    -0.1976 H       
  57 H57            0.5030    -3.5750     1.2398 H       
  58 H58            0.9725    -3.5622    -2.6671 H       
  59 H59           -1.9826    -2.8357     2.3016 H       
  60 H60            3.0734     0.3415    -0.4276 H       
  61 H61            1.9550     0.1887    -1.8911 H       
  62 H62            1.0784    -0.7540    -3.1204 H       
  63 H63            0.1751     0.1831    -1.9063 H       
  64 H64           -1.2876     0.2285     0.5061 H       
  65 H65           -1.5131    -1.0924    -0.6655 H       
  66 H66           -2.3464    -1.1451     0.9065 H       
  67 H67            4.8088    -3.0242    -1.8353 H       
  68 H68            1.8971     2.6893     1.1304 H       
  69 H69            4.5343     2.4225    -0.3882 H       
  70 H70            5.4527    -1.4110    -3.6005 H       
  71 H71            5.4203    -0.0859    -2.4184 H       
  72 H72            8.2392    -1.8397    -0.4233 H       
  73 H73           -1.8887    -6.4507     1.3186 H       
  74 H74            5.5795     2.5919     1.8378 H       
  75 H75            3.9742     2.6889     2.6032 H       
  76 H76            0.4076    -5.2082     0.5672 H       
  77 H77            6.2591    -1.3810     1.1841 H       
  78 H78            5.0555     0.3413     0.9777 H       
  79 H79            2.3155    -7.0364    -0.2919 H       
  80 H80            3.9643    -3.7945    -3.2081 H       
  81 H81            2.6403    -4.3790    -4.2442 H       
  82 H82            2.8878    -2.6309    -4.0177 H       
  83 H83           -2.3524    -4.8192     0.0142 H       
  84 H84           -3.5708    -4.4033     1.2434 H       
  85 H85           -3.0234    -3.1719     0.0805 H       
  86 H86            8.5038    -3.0395    -2.4264 H       
  87 H87            6.8336    -3.5981    -2.1678 H       
  88 H88            7.3097    -2.9136    -3.7404 H       
  89 H89            0.0331    -6.8869     3.6357 H       
  90 H90           -1.7248    -7.1655     3.6601 H       
  91 H91           -0.6783    -8.1724     2.6309 H       
  92 H92           -1.9451    -7.0614    -0.4271 H       
  93 H93           -0.9568    -5.9650    -1.4218 H       
  94 H94           -1.0344    -7.6987    -1.8172 H       
  95 H95            1.5731    -9.2620    -1.1771 H       
  96 H96            0.7526    -8.4231    -2.5155 H       
  97 H97            0.7882    -2.9862     3.0181 H       
  98 H98            1.8718    -1.6357     2.6052 H       
  99 H99            0.9347    -1.5944     4.1179 H       
 100 H100           6.2568    -3.9207    -0.4922 H       
 101 H101           7.3888    -3.5523     0.8312 H       
 102 H102           5.6496    -3.7233     1.1693 H       
 103 H103           4.9400    -0.8518     3.1489 H       
 104 H104           6.0353     0.5478     3.2463 H       
 105 H105           4.4006     0.6469     3.9435 H       
 106 H106           1.0514     2.3966    -1.0859 H       
 107 H107           7.6469     0.2402     0.5819 H       
 108 H108           0.0427    -9.2457    -0.2157 H       
 109 H109           1.5171    -5.8443     2.5634 H       
 110 H110           3.2765     5.8768     1.6082 H       
 111 H111           2.3175     4.3860     1.7693 H       
 112 H112           3.9213     4.4994     2.5329 H       
 113 H113           5.9272     4.4572     1.1105 H       
 114 H114           5.7259     4.4074    -0.6573 H       
 115 H115           5.2759     5.8719     0.2487 H       
 116 H116           3.7366    -8.2815    -1.8888 H       
 117 H117           2.9963    -9.2206    -3.2072 H       
 118 H118           2.9161    -7.4426    -3.2272 H       
 119 H119           8.0916    -1.5366    -4.6298 H       
 120 H120           6.7819    -0.3326    -4.5720 H       
 121 H121           8.4748     0.1998    -4.7089 H       
@<TRIPOS>BOND
   1    1   15 1
   2    1   22 1
   3    2   18 1
   4    2   25 1
   5    3   46 1
   6    3   17 1
   7    4   22 1
   8    4   37 1
   9    5   25 1
  10    5   36 1
  11    6   38 1
  12    6   39 1
  13    7   52 1
  14    7   26 1
  15    8  106 1
  16    8   27 1
  17    9  107 1
  18    9   30 1
  19   10  108 1
  20   10   32 1
  21   11  109 1
  22   11   34 1
  23   12   35 2
  24   13   39 2
  25   14   49 1
  26   14   50 1
  27   14   28 1
  28   15   16 1
  29   15   53 1
  30   15   17 1
  31   16   18 1
  32   16   23 1
  33   16   54 1
  34   17   19 1
  35   17   24 1
  36   18   20 1
  37   18   55 1
  38   19   21 1
  39   19   56 1
  40   19   57 1
  41   20   39 1
  42   20   40 1
  43   20   58 1
  44   21   35 1
  45   21   41 1
  46   21   59 1
  47   22   27 1
  48   22   60 1
  49   23   61 1
  50   23   62 1
  51   23   63 1
  52   24   64 1
  53   24   65 1
  54   24   66 1
  55   25   29 1
  56   25   67 1
  57   26   29 1
  58   26   30 1
  59   26   42 1
  60   27   28 1
  61   27   68 1
  62   28   33 1
  63   28   69 1
  64   29   70 1
  65   29   71 1
  66   30   36 1
  67   30   72 1
  68   31   34 1
  69   31   35 1
  70   31   43 1
  71   31   73 1
  72   32   34 1
  73   32   44 1
  74   32   38 1
  75   33   37 1
  76   33   74 1
  77   33   75 1
  78   34   76 1
  79   36   47 1
  80   36   77 1
  81   37   48 1
  82   37   78 1
  83   38   45 1
  84   38   79 1
  85   40   80 1
  86   40   81 1
  87   40   82 1
  88   41   83 1
  89   41   84 1
  90   41   85 1
  91   42   86 1
  92   42   87 1
  93   42   88 1
  94   43   89 1
  95   43   90 1
  96   43   91 1
  97   44   92 1
  98   44   93 1
  99   44   94 1
 100   45   51 1
 101   45   95 1
 102   45   96 1
 103   46   97 1
 104   46   98 1
 105   46   99 1
 106   47  100 1
 107   47  101 1
 108   47  102 1
 109   48  103 1
 110   48  104 1
 111   48  105 1
 112   49  110 1
 113   49  111 1
 114   49  112 1
 115   50  113 1
 116   50  114 1
 117   50  115 1
 118   51  116 1
 119   51  117 1
 120   51  118 1
 121   52  119 1
 122   52  120 1
 123   52  121 1

#	End of record

