#	Name: ASD03912046
#	Creating user name:	WinNT
#	Creation time:	15. 06. 2019 20:47

#	Modifying user name:	WinNT
#	Modification time:	15. 06. 2019 20:47

#	Program:	/corina/corina34_cracker 3.40 0067  02.08.2006

@<TRIPOS>MOLECULE
ASD03912046
  73   76    0    0    0
SMALL
NO_CHARGES


@<TRIPOS>ATOM
   1 C1           -12.5024     7.7047    -3.0010 C.ar    
   2 C2           -13.1606     7.3200    -4.1546 C.ar    
   3 C3           -12.8397     7.9057    -5.3655 C.ar    
   4 C4           -11.8597     8.8770    -5.4262 C.ar    
   5 C5           -11.1968     9.2657    -4.2694 C.ar    
   6 C6           -11.5257     8.6799    -3.0540 C.ar    
   7 C7           -12.8553     7.0638    -1.6836 C.3     
   8 C8           -13.5596     7.4834    -6.6202 C.3     
   9 N9           -10.2035    10.2495    -4.3275 N.am    
  10 C10           -9.1324    10.1746    -3.5128 C.2     
  11 C11           -8.0115    11.1727    -3.6482 C.3     
  12 O12           -9.0708     9.3040    -2.6706 O.2     
  13 C13           -6.9443    10.8710    -2.6279 C.ar    
  14 C14           -5.9085    10.0120    -2.9459 C.ar    
  15 C15           -4.9290     9.7338    -2.0124 C.ar    
  16 C16           -4.9851    10.3172    -0.7549 C.ar    
  17 C17           -6.0254    11.1788    -0.4383 C.ar    
  18 C18           -6.9994    11.4581    -1.3773 C.ar    
  19 O19           -4.0229    10.0448     0.1653 O.3     
  20 C20           -4.0561    10.7960     1.3805 C.3     
  21 C21           -2.9366    10.3573     2.2889 C.2     
  22 C22           -3.9288    12.2987     1.0748 C.3     
  23 C23           -5.2151    12.9665     1.6033 C.3     
  24 C24           -5.7287    11.9925     2.6926 C.3     
  25 C25           -5.4149    10.6021     2.0847 C.3     
  26 N26           -2.5678     9.0616     2.3266 N.am    
  27 O27           -2.3675    11.1703     2.9861 O.2     
  28 C28           -1.4095     8.6526     3.1248 C.3     
  29 C29           -1.8538     8.3368     4.5297 C.2     
  30 O30           -3.0185     8.4425     4.8332 O.2     
  31 O31           -0.9556     7.9381     5.4441 O.3     
  32 C32           -0.7726     7.4097     2.4998 C.3     
  33 C33           -0.1776     7.7718     1.1375 C.3     
  34 C34            0.5742     6.5903     0.6110 C.2     
  35 C35            0.1080     5.8078    -0.3533 C.2     
  36 C36           -1.2043     6.1058    -0.9569 C.2     
  37 C37           -1.7718     7.4493    -0.7375 C.2     
  38 C38           -1.2832     8.2125     0.2309 C.2     
  39 O39           -1.7984     5.2716    -1.6141 O.2     
  40 H40          -13.9268     6.5601    -4.1099 H       
  41 H41          -11.6090     9.3336    -6.3722 H       
  42 H42          -11.0123     8.9802    -2.1526 H       
  43 H43          -12.2310     6.1838    -1.5288 H       
  44 H44          -12.6860     7.7760    -0.8761 H       
  45 H45          -13.9044     6.7679    -1.6930 H       
  46 H46          -14.4426     8.1070    -6.7599 H       
  47 H47          -12.8949     7.5978    -7.4765 H       
  48 H48          -13.8620     6.4399    -6.5319 H       
  49 H49          -10.2857    10.9853    -4.9541 H       
  50 H50           -7.5858    11.1073    -4.6495 H       
  51 H51           -8.3984    12.1782    -3.4829 H       
  52 H52           -5.8655     9.5578    -3.9248 H       
  53 H53           -4.1204     9.0625    -2.2611 H       
  54 H54           -6.0713    11.6342     0.5399 H       
  55 H55           -7.8094    12.1288    -1.1314 H       
  56 H56           -3.0577    12.7109     1.5842 H       
  57 H57           -3.8417    12.4550    -0.0004 H       
  58 H58           -4.9886    13.9400     2.0381 H       
  59 H59           -5.9493    13.0662     0.8039 H       
  60 H60           -5.1856    12.1365     3.6267 H       
  61 H61           -6.8011    12.1145     2.8453 H       
  62 H62           -6.1812    10.3196     1.3628 H       
  63 H63           -5.3347     9.8513     2.8708 H       
  64 H64           -3.0694     8.3998     1.8252 H       
  65 H65           -0.6799     9.4621     3.1477 H       
  66 H66           -1.2880     7.7469     6.3318 H       
  67 H67            0.0163     7.0379     3.1536 H       
  68 H68           -1.5318     6.6381     2.3712 H       
  69 H69            0.5182     8.6005     1.2683 H       
  70 H70            1.5413     6.3643     1.0353 H       
  71 H71            0.6843     4.9601    -0.6935 H       
  72 H72           -2.5777     7.8087    -1.3602 H       
  73 H73           -1.7032     9.1975     0.3720 H       
@<TRIPOS>BOND
   1    1    2 ar
   2    1    7 1
   3    1    6 ar
   4    2    3 ar
   5    2   40 1
   6    3    4 ar
   7    3    8 1
   8    4    5 ar
   9    4   41 1
  10    5    6 ar
  11    5    9 1
  12    6   42 1
  13    7   43 1
  14    7   44 1
  15    7   45 1
  16    8   46 1
  17    8   47 1
  18    8   48 1
  19    9   10 am
  20    9   49 1
  21   10   11 1
  22   10   12 2
  23   11   13 1
  24   11   50 1
  25   11   51 1
  26   13   14 ar
  27   13   18 ar
  28   14   15 ar
  29   14   52 1
  30   15   16 ar
  31   15   53 1
  32   16   17 ar
  33   16   19 1
  34   17   18 ar
  35   17   54 1
  36   18   55 1
  37   19   20 1
  38   20   21 1
  39   20   22 1
  40   20   25 1
  41   21   26 am
  42   21   27 2
  43   22   23 1
  44   22   56 1
  45   22   57 1
  46   23   24 1
  47   23   58 1
  48   23   59 1
  49   24   25 1
  50   24   60 1
  51   24   61 1
  52   25   62 1
  53   25   63 1
  54   26   28 1
  55   26   64 1
  56   28   29 1
  57   28   32 1
  58   28   65 1
  59   29   30 2
  60   29   31 1
  61   31   66 1
  62   32   33 1
  63   32   67 1
  64   32   68 1
  65   33   34 1
  66   33   38 1
  67   33   69 1
  68   34   35 2
  69   34   70 1
  70   35   36 1
  71   35   71 1
  72   36   37 1
  73   36   39 2
  74   37   38 2
  75   37   72 1
  76   38   73 1

#	End of record

