#	Name: ASD01920055
#	Creating user name:	WinNT
#	Creation time:	15. 06. 2019 20:11

#	Modifying user name:	WinNT
#	Modification time:	15. 06. 2019 20:11

#	Program:	/corina/corina34_cracker 3.40 0067  02.08.2006

@<TRIPOS>MOLECULE
ASD01920055
  35   37    0    0    0
SMALL
NO_CHARGES


@<TRIPOS>ATOM
   1 C1            -0.0065     1.3661     0.0458 C.ar    
   2 C2            -0.0775     0.1104    -0.5355 C.ar    
   3 C3             1.0431    -0.4129    -1.1619 C.ar    
   4 C4             2.2027     0.3455    -1.1840 C.ar    
   5 C5             2.2021     1.6007    -0.5791 C.ar    
   6 N6             1.1072     2.0649     0.0104 N.ar    
   7 C7             3.4335     2.4238    -0.5940 C.2     
   8 O8             4.4388     2.0036    -1.1323 O.2     
   9 N9             3.4390     3.6387    -0.0105 N.am    
  10 C10            4.6303     4.3689     0.0744 C.ar    
  11 C11            4.6052     5.7537    -0.0298 C.ar    
  12 C12            5.8368     3.7094     0.2686 C.ar    
  13 C13            7.0128     4.4316     0.3523 C.ar    
  14 C14            6.9864     5.8163     0.2421 C.ar    
  15 C15            5.7802     6.4744     0.0539 C.ar    
  16 O16            8.1430     6.5271     0.3248 O.3     
  17 F17            8.1871     3.7910     0.5416 F       
  18 C18            8.9263     6.5999    -0.7806 C.ar    
  19 C19           10.1635     7.2267    -0.7065 C.ar    
  20 C20           10.9534     7.2946    -1.8411 C.ar    
  21 C21           10.4746     6.7297    -3.0160 C.ar    
  22 C22            9.2335     6.1217    -3.0166 C.ar    
  23 N23            8.5065     6.0685    -1.9170 N.ar    
  24 Cl24          11.4244     6.7873    -4.4680 Cl      
  25 H25           -0.8789     1.7786     0.5307 H       
  26 H26           -0.9967    -0.4554    -0.5005 H       
  27 H27            1.0131    -1.3895    -1.6220 H       
  28 H28            3.0944    -0.0311    -1.6630 H       
  29 H29            2.6176     4.0071     0.3505 H       
  30 H30            3.6664     6.2670    -0.1767 H       
  31 H31            5.8565     2.6330     0.3545 H       
  32 H32            5.7603     7.5508    -0.0317 H       
  33 H33           10.5046     7.6558     0.2241 H       
  34 H34           11.9198     7.7761    -1.8134 H       
  35 H35            8.8561     5.6807    -3.9273 H       
@<TRIPOS>BOND
   1    1    2 ar
   2    1    6 ar
   3    1   25 1
   4    2    3 ar
   5    2   26 1
   6    3    4 ar
   7    3   27 1
   8    4    5 ar
   9    4   28 1
  10    5    6 ar
  11    5    7 1
  12    7    8 2
  13    7    9 am
  14    9   10 1
  15    9   29 1
  16   10   11 ar
  17   10   12 ar
  18   11   15 ar
  19   11   30 1
  20   12   13 ar
  21   12   31 1
  22   13   14 ar
  23   13   17 1
  24   14   15 ar
  25   14   16 1
  26   15   32 1
  27   16   18 1
  28   18   19 ar
  29   18   23 ar
  30   19   20 ar
  31   19   33 1
  32   20   21 ar
  33   20   34 1
  34   21   22 ar
  35   21   24 1
  36   22   23 ar
  37   22   35 1

#	End of record

