#	Name: ASD03200030
#	Creating user name:	WinNT
#	Creation time:	15. 06. 2019 20:34

#	Modifying user name:	WinNT
#	Modification time:	15. 06. 2019 20:34

#	Program:	/corina/corina34_cracker 3.40 0067  02.08.2006

@<TRIPOS>MOLECULE
ASD03200030
  60   63    0    0    0
SMALL
NO_CHARGES


@<TRIPOS>ATOM
   1 C1             0.6853    -2.4914    -0.0314 C.3     
   2 N2             0.2089    -1.1644     0.3792 N.3     
   3 C3             0.7070    -0.8112     1.7147 C.3     
   4 C4             2.2361    -0.7551     1.6919 C.3     
   5 C5             2.7858    -2.1193     1.2660 C.3     
   6 C6             2.2138    -2.4854    -0.1063 C.3     
   7 C7            -1.1827    -1.0962     0.3307 C.ar    
   8 C8            -1.9319    -0.9451     1.4949 C.ar    
   9 C9            -3.3077    -0.8817     1.4053 C.ar    
  10 N10           -3.9167    -0.9620     0.2374 N.ar    
  11 C11           -3.2472    -1.1055    -0.8911 C.ar    
  12 C12           -1.8638    -1.1719    -0.8900 C.ar    
  13 N13           -1.1576    -1.3238    -2.0909 N.am    
  14 C14           -1.6802    -2.0602    -3.0915 C.2     
  15 C15           -0.9024    -2.2970    -4.3100 C.2     
  16 O16           -2.7987    -2.5287    -2.9826 O.2     
  17 C17           -1.4164    -2.9516    -5.4073 C.2     
  18 S18           -0.1595    -3.0191    -6.6401 S.3     
  19 C19            0.9463    -2.1617    -5.5727 C.2     
  20 N20            0.3606    -1.8915    -4.4508 N.2     
  21 C21            2.3386    -1.7991    -5.9101 C.ar    
  22 N22            2.7347    -0.4224     3.0331 N.3     
  23 N23           -2.6928    -3.4652    -5.5211 N.pl3   
  24 C24            2.9037    -2.2296    -7.1124 C.ar    
  25 C25            4.2109    -1.8849    -7.4214 C.ar    
  26 C26            4.9540    -1.1156    -6.5385 C.ar    
  27 C27            4.3971    -0.6876    -5.3467 C.ar    
  28 C28            3.0939    -1.0188    -5.0296 C.ar    
  29 F29            2.1794    -2.9796    -7.9715 F       
  30 F30            2.5536    -0.5984    -3.8649 F       
  31 O31            4.7650    -2.3021    -8.5914 O.3     
  32 C32            6.1499    -2.0130    -8.7928 C.3     
  33 C33            6.7447    -3.0251    -9.7741 C.3     
  34 C34            6.2984    -0.6013    -9.3635 C.3     
  35 H35            0.3603    -3.2351     0.6961 H       
  36 H36            0.2747    -2.7377    -1.0106 H       
  37 H37            0.3120     0.1627     2.0037 H       
  38 H38            0.3818    -1.5628     2.4340 H       
  39 H39            2.5618     0.0060     0.9828 H       
  40 H40            3.8731    -2.0714     1.2065 H       
  41 H41            2.4929    -2.8740     1.9959 H       
  42 H42            2.5679    -3.4748    -0.3960 H       
  43 H43            2.5392    -1.7516    -0.8437 H       
  44 H44           -1.4427    -0.8788     2.4555 H       
  45 H45           -3.8946    -0.7650     2.3043 H       
  46 H46           -3.7840    -1.1672    -1.8262 H       
  47 H47           -0.2927    -0.8989    -2.2020 H       
  48 H48            3.7426    -0.4590     3.0635 H       
  49 H49            2.3965     0.4804     3.3309 H       
  50 H50           -3.3177    -3.3792    -4.7842 H       
  51 H51           -2.9647    -3.9121    -6.3380 H       
  52 H52            5.9720    -0.8498    -6.7824 H       
  53 H53            4.9816    -0.0888    -4.6639 H       
  54 H54            6.6767    -2.0773    -7.8407 H       
  55 H55            6.2179    -2.9608   -10.7261 H       
  56 H56            7.8010    -2.8046    -9.9277 H       
  57 H57            6.6388    -4.0308    -9.3674 H       
  58 H58            5.7717    -0.5370   -10.3156 H       
  59 H59            5.8747     0.1197    -8.6644 H       
  60 H60            7.3548    -0.3808    -9.5171 H       
@<TRIPOS>BOND
   1    1    2 1
   2    1    6 1
   3    1   35 1
   4    1   36 1
   5    2    3 1
   6    2    7 1
   7    3    4 1
   8    3   37 1
   9    3   38 1
  10    4    5 1
  11    4   22 1
  12    4   39 1
  13    5    6 1
  14    5   40 1
  15    5   41 1
  16    6   42 1
  17    6   43 1
  18    7    8 ar
  19    7   12 ar
  20    8    9 ar
  21    8   44 1
  22    9   10 ar
  23    9   45 1
  24   10   11 ar
  25   11   12 ar
  26   11   46 1
  27   12   13 1
  28   13   14 am
  29   13   47 1
  30   14   15 1
  31   14   16 2
  32   15   17 2
  33   15   20 1
  34   17   18 1
  35   17   23 1
  36   18   19 1
  37   19   20 2
  38   19   21 1
  39   21   24 ar
  40   21   28 ar
  41   22   48 1
  42   22   49 1
  43   23   50 1
  44   23   51 1
  45   24   25 ar
  46   24   29 1
  47   25   26 ar
  48   25   31 1
  49   26   27 ar
  50   26   52 1
  51   27   28 ar
  52   27   53 1
  53   28   30 1
  54   31   32 1
  55   32   33 1
  56   32   34 1
  57   32   54 1
  58   33   55 1
  59   33   56 1
  60   33   57 1
  61   34   58 1
  62   34   59 1
  63   34   60 1

#	End of record

