#	Name: ASD03081165
#	Creating user name:	WinNT
#	Creation time:	15. 06. 2019 20:27

#	Modifying user name:	WinNT
#	Modification time:	15. 06. 2019 20:27

#	Program:	/corina/corina34_cracker 3.40 0067  02.08.2006

@<TRIPOS>MOLECULE
ASD03081165
  28   31    0    0    0
SMALL
NO_CHARGES


@<TRIPOS>ATOM
   1 O1            -0.0161     1.3376     0.0094 O.3     
   2 C2             0.0021    -0.0041     0.0020 C.2     
   3 N3             1.2269    -0.4389    -0.0120 N.2     
   4 C4             2.0711     0.6263    -0.0144 C.ar    
   5 C5             1.2625     1.7756    -0.0005 C.ar    
   6 C6             1.8466     3.0290     0.0003 C.ar    
   7 C7             3.2362     3.1416    -0.0128 C.ar    
   8 C8             4.0349     1.9917    -0.0270 C.ar    
   9 C9             3.4628     0.7538    -0.0274 C.ar    
  10 O10            3.2344     5.6606     0.0008 O.3     
  11 N11            4.0451     6.5624    -0.0031 N.2     
  12 C12            5.2616     6.0807    -0.0184 C.2     
  13 N13            5.1621     4.7351    -0.0243 N.2     
  14 C14            3.8672     4.4769    -0.0120 C.2     
  15 C15            7.7562     6.2286    -0.0448 C.ar    
  16 C16            6.5192     6.8692    -0.0280 C.ar    
  17 C17            6.4815     8.2658    -0.0208 C.ar    
  18 C18            7.6822     8.9553    -0.0307 C.ar    
  19 C19            8.8691     8.2462    -0.0473 C.ar    
  20 N20            8.8729     6.9270    -0.0538 N.ar    
  21 H21           -0.8759    -0.6330     0.0073 H       
  22 H22            1.2300     3.9156     0.0106 H       
  23 H23            5.1107     2.0856    -0.0378 H       
  24 H24            4.0856    -0.1285    -0.0377 H       
  25 H25            7.7999     5.1495    -0.0460 H       
  26 H26            5.5396     8.7942    -0.0081 H       
  27 H27            7.6915    10.0352    -0.0259 H       
  28 H28            9.8075     8.7806    -0.0554 H       
@<TRIPOS>BOND
   1    1    2 1
   2    1    5 1
   3    2    3 2
   4    2   21 1
   5    3    4 1
   6    4    5 ar
   7    4    9 ar
   8    5    6 ar
   9    6    7 ar
  10    6   22 1
  11    7    8 ar
  12    7   14 1
  13    8    9 ar
  14    8   23 1
  15    9   24 1
  16   10   11 1
  17   10   14 1
  18   11   12 2
  19   12   13 1
  20   12   16 1
  21   13   14 2
  22   15   16 ar
  23   15   20 ar
  24   15   25 1
  25   16   17 ar
  26   17   18 ar
  27   17   26 1
  28   18   19 ar
  29   18   27 1
  30   19   20 ar
  31   19   28 1

#	End of record

