#	Name: ASD01410941
#	Creating user name:	WinNT
#	Creation time:	15. 06. 2019 19:19

#	Modifying user name:	WinNT
#	Modification time:	15. 06. 2019 19:19

#	Program:	/corina/corina34_cracker 3.40 0067  02.08.2006

@<TRIPOS>MOLECULE
ASD01410941
  47   49    0    0    0
SMALL
NO_CHARGES


@<TRIPOS>ATOM
   1 C1            -0.0267     1.3235    -0.2229 C.ar    
   2 C2             1.1497     2.0210    -0.4222 C.ar    
   3 C3             2.3663     1.4002    -0.2076 C.ar    
   4 C4             2.4060     0.0822     0.2067 C.ar    
   5 C5             1.2292    -0.6152     0.4069 C.ar    
   6 C6             0.0130     0.0049     0.1911 C.ar    
   7 C7            -1.3529     2.0021    -0.4507 C.3     
   8 P8             4.0022    -0.7327     0.4871 P.3     
   9 N9             4.5702    -1.3256    -0.9326 N.pl3   
  10 O10            4.9672     0.2474     1.0337 O.2     
  11 C11            5.7888    -1.9976    -0.9685 C.2     
  12 C12            6.3196    -2.5180    -2.1262 C.2     
  13 S13            7.8607    -3.2878    -1.7746 S.3     
  14 C14            7.7242    -2.8736    -0.0718 C.2     
  15 C15            6.5662    -2.1919     0.1496 C.2     
  16 C16            5.7187    -2.4450    -3.4017 C.2     
  17 O17            4.6452    -1.8870    -3.5378 O.2     
  18 O18            6.3344    -2.9940    -4.4706 O.3     
  19 C19            8.7216    -3.2103     0.9655 C.ar    
  20 C20            9.8802    -3.9096     0.6229 C.ar    
  21 C21           10.8074    -4.2210     1.5954 C.ar    
  22 C22           10.5906    -3.8417     2.9095 C.ar    
  23 C23            9.4429    -3.1481     3.2556 C.ar    
  24 C24            8.5117    -2.8252     2.2908 C.ar    
  25 O25            3.8117    -1.9400     1.5350 O.3     
  26 C26            3.3295    -1.7463     2.8662 C.3     
  27 Cl27          11.7619    -4.2377     4.1281 Cl      
  28 C28            3.6491     2.1604    -0.4259 C.3     
  29 H29            1.1187     3.0509    -0.7459 H       
  30 H30            1.2602    -1.6453     0.7300 H       
  31 H31           -0.9062    -0.5401     0.3468 H       
  32 H32           -1.6591     1.8624    -1.4875 H       
  33 H33           -2.1019     1.5674     0.2111 H       
  34 H34           -1.2568     3.0673    -0.2407 H       
  35 H35            4.0570    -1.2081    -1.7473 H       
  36 H36            6.2789    -1.8349     1.1275 H       
  37 H37            5.8470    -2.8938    -5.2997 H       
  38 H38           10.0500    -4.2066    -0.4015 H       
  39 H39           11.7041    -4.7620     1.3316 H       
  40 H40            9.2792    -2.8553     4.2822 H       
  41 H41            7.6195    -2.2798     2.5610 H       
  42 H42            3.2871    -2.7064     3.3806 H       
  43 H43            4.0017    -1.0763     3.4023 H       
  44 H44            2.3319    -1.3085     2.8312 H       
  45 H45            3.9958     2.5683     0.5236 H       
  46 H46            4.4056     1.4880    -0.8304 H       
  47 H47            3.4736     2.9749    -1.1287 H       
@<TRIPOS>BOND
   1    1    2 ar
   2    1    6 ar
   3    1    7 1
   4    2    3 ar
   5    2   29 1
   6    3    4 ar
   7    3   28 1
   8    4    5 ar
   9    4    8 1
  10    5    6 ar
  11    5   30 1
  12    6   31 1
  13    7   32 1
  14    7   33 1
  15    7   34 1
  16    8    9 1
  17    8   10 2
  18    8   25 1
  19    9   11 1
  20    9   35 1
  21   11   12 2
  22   11   15 1
  23   12   13 1
  24   12   16 1
  25   13   14 1
  26   14   15 2
  27   14   19 1
  28   15   36 1
  29   16   17 2
  30   16   18 1
  31   18   37 1
  32   19   20 ar
  33   19   24 ar
  34   20   21 ar
  35   20   38 1
  36   21   22 ar
  37   21   39 1
  38   22   23 ar
  39   22   27 1
  40   23   24 ar
  41   23   40 1
  42   24   41 1
  43   25   26 1
  44   26   42 1
  45   26   43 1
  46   26   44 1
  47   28   45 1
  48   28   46 1
  49   28   47 1

#	End of record

