#	Name: ASD01815591
#	Creating user name:	WinNT
#	Creation time:	15. 06. 2019 19:33

#	Modifying user name:	WinNT
#	Modification time:	15. 06. 2019 19:33

#	Program:	/corina/corina34_cracker 3.40 0067  02.08.2006

@<TRIPOS>MOLECULE
ASD01815591
  34   36    0    0    0
SMALL
NO_CHARGES


@<TRIPOS>ATOM
   1 C1             0.2403     1.5825     0.5579 C.ar    
   2 C2             0.1792     0.1951     0.5537 C.ar    
   3 C3             1.3170    -0.5593     0.3547 C.ar    
   4 C4             2.5408     0.0733     0.1556 C.ar    
   5 C5             2.5936     1.4781     0.1613 C.ar    
   6 C6             1.4323     2.2234     0.3642 C.ar    
   7 N7             3.6872    -0.6649    -0.0443 N.pl3   
   8 C8             4.8871    -0.1029    -0.2392 C.2     
   9 C9             5.0645     1.2658    -0.2543 C.2     
  10 C10            3.8955     2.1368    -0.0507 C.2     
  11 O11            3.9995     3.3509    -0.0560 O.2     
  12 C12            6.3983     1.8439    -0.4705 C.2     
  13 O13            7.3568     1.1151    -0.6380 O.2     
  14 O14            6.5589     3.1823    -0.4831 O.3     
  15 C15            3.5892    -2.1266    -0.0430 C.3     
  16 C16            3.7211    -2.6377     1.3686 C.ar    
  17 C17            2.6001    -3.0567     2.0593 C.ar    
  18 C18            2.7203    -3.5257     3.3542 C.ar    
  19 C19            3.9628    -3.5760     3.9599 C.ar    
  20 C20            5.0859    -3.1569     3.2702 C.ar    
  21 C21            4.9666    -2.6927     1.9716 C.ar    
  22 Cl22          -1.3448    -0.5982     0.8022 Cl      
  23 F23            6.0630    -2.2836     1.2966 F       
  24 Br24           4.1257    -4.2171     5.7315 Br      
  25 H25           -0.6602     2.1588     0.7107 H       
  26 H26            1.2583    -1.6377     0.3537 H       
  27 H27            1.4745     3.3026     0.3680 H       
  28 H28            5.7447    -0.7420    -0.3892 H       
  29 H29            7.4548     3.5156    -0.6290 H       
  30 H30            2.6232    -2.4264    -0.4491 H       
  31 H31            4.3870    -2.5448    -0.6568 H       
  32 H32            1.6294    -3.0175     1.5874 H       
  33 H33            1.8435    -3.8527     3.8934 H       
  34 H34            6.0561    -3.1954     3.7432 H       
@<TRIPOS>BOND
   1    1    2 ar
   2    1    6 ar
   3    1   25 1
   4    2    3 ar
   5    2   22 1
   6    3    4 ar
   7    3   26 1
   8    4    5 ar
   9    4    7 1
  10    5    6 ar
  11    5   10 1
  12    6   27 1
  13    7    8 1
  14    7   15 1
  15    8    9 2
  16    8   28 1
  17    9   10 1
  18    9   12 1
  19   10   11 2
  20   12   13 2
  21   12   14 1
  22   14   29 1
  23   15   16 1
  24   15   30 1
  25   15   31 1
  26   16   17 ar
  27   16   21 ar
  28   17   18 ar
  29   17   32 1
  30   18   19 ar
  31   18   33 1
  32   19   20 ar
  33   19   24 1
  34   20   21 ar
  35   20   34 1
  36   21   23 1

#	End of record

