#	Name: ASD03240959
#	Creating user name:	WinNT
#	Creation time:	15. 06. 2019 20:35

#	Modifying user name:	WinNT
#	Modification time:	15. 06. 2019 20:35

#	Program:	/corina/corina34_cracker 3.40 0067  02.08.2006

@<TRIPOS>MOLECULE
ASD03240959
  52   57    0    0    0
SMALL
NO_CHARGES


@<TRIPOS>ATOM
   1 C1            -0.0188     1.5336     0.0105 C.3     
   2 C2             0.0021    -0.0041     0.0020 C.3     
   3 C3             1.3815     0.0967    -0.6702 C.3     
   4 C4             1.5179     1.4762    -0.0045 C.3     
   5 O5            -0.5818     2.1049    -1.1721 O.3     
   6 C6             2.3746    -0.9181    -0.1653 C.ar    
   7 C7             3.3681    -1.3872    -1.0062 C.ar    
   8 C8             4.2801    -2.3166    -0.5500 C.ar    
   9 C9             4.1992    -2.7830     0.7624 C.ar    
  10 C10            3.1953    -2.3058     1.6055 C.ar    
  11 C11            2.2925    -1.3725     1.1389 C.ar    
  12 N12            6.9673    -6.5944    -0.0368 N.pl3   
  13 C13            7.8687    -7.5268     0.4002 C.2     
  14 N14            8.3267    -7.5378     1.6646 N.2     
  15 C15            7.9376    -6.6581     2.5511 C.2     
  16 C16            6.9755    -5.6308     2.1574 C.ar    
  17 C17            6.5218    -4.6640     3.0603 C.ar    
  18 C18            5.6036    -3.7221     2.6006 C.ar    
  19 C19            5.1743    -3.7807     1.2581 C.ar    
  20 N20            5.6277    -4.7125     0.4336 N.ar    
  21 C21            6.4987    -5.6246     0.8290 C.ar    
  22 C22            8.1454    -8.3531    -0.6808 C.2     
  23 C23            7.3987    -7.9001    -1.7611 C.2     
  24 N24            6.6940    -6.8603    -1.3840 N.2     
  25 C25            5.0871    -2.6764     3.5066 C.2     
  26 C26            4.5760    -2.8937     4.7356 C.2     
  27 C27            4.1566    -1.7566     5.3946 C.2     
  28 C28            4.3202    -0.6167     4.7169 C.2     
  29 S29            5.0501    -0.9538     3.1529 S.3     
  30 C30           -0.5973     2.1316     1.2944 C.3     
  31 N31            1.3186     0.1546    -2.1367 N.3     
  32 H32            0.0329    -0.4458     0.9980 H       
  33 H33           -0.7629    -0.4476    -0.6353 H       
  34 H34            1.9766     2.2276    -0.6471 H       
  35 H35            1.9632     1.4391     0.9897 H       
  36 H36           -0.5977     3.0718    -1.1727 H       
  37 H37            3.4297    -1.0254    -2.0219 H       
  38 H38            5.0548    -2.6826    -1.2076 H       
  39 H39            3.1275    -2.6630     2.6224 H       
  40 H40            1.5176    -0.9990     1.7919 H       
  41 H41            8.3216    -6.6908     3.5599 H       
  42 H42            6.8717    -4.6484     4.0820 H       
  43 H43            8.8202    -9.1963    -0.6816 H       
  44 H44            7.3963    -8.3355    -2.7494 H       
  45 H45            4.5006    -3.8799     5.1694 H       
  46 H46            3.7274    -1.7857     6.3852 H       
  47 H47            4.0489     0.3646     5.0773 H       
  48 H48            0.0010     1.8098     2.1469 H       
  49 H49           -0.5800     3.2195     1.2285 H       
  50 H50           -1.6249     1.7917     1.4227 H       
  51 H51            2.2430     0.2199    -2.5360 H       
  52 H52            0.8193    -0.6393    -2.5089 H       
@<TRIPOS>BOND
   1    1    2 1
   2    1    4 1
   3    1    5 1
   4    1   30 1
   5    2    3 1
   6    2   32 1
   7    2   33 1
   8    3    4 1
   9    3    6 1
  10    3   31 1
  11    4   34 1
  12    4   35 1
  13    5   36 1
  14    6    7 ar
  15    6   11 ar
  16    7    8 ar
  17    7   37 1
  18    8    9 ar
  19    8   38 1
  20    9   10 ar
  21    9   19 1
  22   10   11 ar
  23   10   39 1
  24   11   40 1
  25   12   13 1
  26   12   21 1
  27   12   24 1
  28   13   14 1
  29   13   22 2
  30   14   15 2
  31   15   16 1
  32   15   41 1
  33   16   17 ar
  34   16   21 ar
  35   17   18 ar
  36   17   42 1
  37   18   19 ar
  38   18   25 1
  39   19   20 ar
  40   20   21 ar
  41   22   23 1
  42   22   43 1
  43   23   24 2
  44   23   44 1
  45   25   26 2
  46   25   29 1
  47   26   27 1
  48   26   45 1
  49   27   28 2
  50   27   46 1
  51   28   29 1
  52   28   47 1
  53   30   48 1
  54   30   49 1
  55   30   50 1
  56   31   51 1
  57   31   52 1

#	End of record

