#	Name: ASD08151046
#	Creating user name:	WinNT
#	Creation time:	15. 06. 2019 21:17

#	Modifying user name:	WinNT
#	Modification time:	15. 06. 2019 21:17

#	Program:	/corina/corina34_cracker 3.40 0067  02.08.2006

@<TRIPOS>MOLECULE
ASD08151046
  41   43    0    0    0
SMALL
NO_CHARGES


@<TRIPOS>ATOM
   1 C1            -3.2708     0.7647    -2.6472 C.2     
   2 C2            -2.8224     0.2269    -3.9816 C.3     
   3 O3            -3.6538     0.0034    -1.7843 O.2     
   4 N4            -3.2409     2.0912    -2.4107 N.am    
   5 N5            -3.2501     4.9022    -0.4226 N.3     
   6 C6            -4.1476     4.0733    -1.2561 C.3     
   7 C7            -3.6768     2.6140    -1.1134 C.3     
   8 C8            -2.4859     2.6684    -0.1292 C.3     
   9 C9            -2.7255     3.9967     0.6315 C.3     
  10 N10           -5.3906     4.4961     1.3315 N.ar    
  11 C11           -6.3893     4.2725     2.1506 C.ar    
  12 C12           -7.1044     5.3165     2.7336 C.ar    
  13 C13           -6.7685     6.6112     2.4547 C.ar    
  14 C14           -5.6956     6.8454     1.5747 C.ar    
  15 C15           -5.2987     8.1570     1.2462 C.ar    
  16 C16           -4.2622     8.3654     0.3968 C.ar    
  17 C17           -3.5649     7.2798    -0.1714 C.ar    
  18 C18           -3.9334     5.9661     0.1337 C.ar    
  19 C19           -5.0130     5.7379     1.0184 C.ar    
  20 Cl20          -6.1404     9.5119     1.9314 Cl      
  21 C21           -2.4487     7.5295    -1.0863 C.2     
  22 O22           -1.7823     6.6025    -1.4976 O.2     
  23 C23           -2.1277     8.9376    -1.5167 C.3     
  24 H24           -3.6752     0.1779    -4.6587 H       
  25 H25           -2.0622     0.8854    -4.4019 H       
  26 H26           -2.4055    -0.7715    -3.8495 H       
  27 H27           -2.9308     2.6998    -3.0995 H       
  28 H28           -5.1746     4.1683    -0.9035 H       
  29 H29           -4.0797     4.3851    -2.2983 H       
  30 H30           -4.4770     1.9965    -0.7053 H       
  31 H31           -2.5128     1.8212     0.5561 H       
  32 H32           -1.5399     2.6987    -0.6698 H       
  33 H33           -1.7901     4.3812     1.0383 H       
  34 H34           -3.4627     3.8595     1.4226 H       
  35 H35           -6.6650     3.2535     2.3789 H       
  36 H36           -7.9231     5.1028     3.4048 H       
  37 H37           -7.3120     7.4328     2.8973 H       
  38 H38           -3.9675     9.3753     0.1524 H       
  39 H39           -2.8836     9.6184    -1.1252 H       
  40 H40           -1.1485     9.2212    -1.1308 H       
  41 H41           -2.1188     8.9917    -2.6053 H       
@<TRIPOS>BOND
   1    1    2 1
   2    1    3 2
   3    1    4 am
   4    2   24 1
   5    2   25 1
   6    2   26 1
   7    4    7 1
   8    4   27 1
   9    5    6 1
  10    5    9 1
  11    5   18 1
  12    6    7 1
  13    6   28 1
  14    6   29 1
  15    7    8 1
  16    7   30 1
  17    8    9 1
  18    8   31 1
  19    8   32 1
  20    9   33 1
  21    9   34 1
  22   10   11 ar
  23   10   19 ar
  24   11   12 ar
  25   11   35 1
  26   12   13 ar
  27   12   36 1
  28   13   14 ar
  29   13   37 1
  30   14   15 ar
  31   14   19 ar
  32   15   16 ar
  33   15   20 1
  34   16   17 ar
  35   16   38 1
  36   17   18 ar
  37   17   21 1
  38   18   19 ar
  39   21   22 2
  40   21   23 1
  41   23   39 1
  42   23   40 1
  43   23   41 1

#	End of record

