#	Name: ASD01478029
#	Creating user name:	WinNT
#	Creation time:	15. 06. 2019 19:21

#	Modifying user name:	WinNT
#	Modification time:	15. 06. 2019 19:21

#	Program:	/corina/corina34_cracker 3.40 0067  02.08.2006

@<TRIPOS>MOLECULE
ASD01478029
  78   80    0    0    0
SMALL
NO_CHARGES


@<TRIPOS>ATOM
   1 C1             1.1282     2.6985     1.9189 C.3     
   2 C2             1.3646     1.1787     1.8002 C.3     
   3 C3             2.4143     3.3488     2.3451 C.3     
   4 C4             3.2759     3.8203     1.1512 C.3     
   5 C5             3.2692     2.7848     0.0065 C.3     
   6 O6             3.3520     1.4678     0.4728 O.3     
   7 C7             2.0592     0.8347     0.5631 C.3     
   8 C8            -1.1735     3.0008     2.4731 C.2     
   9 O9             0.0991     2.9562     2.9104 O.3     
  10 N10           -2.1767     3.2360     3.3419 N.am    
  11 O11           -1.4175     2.8292     1.2952 O.2     
  12 C12           -4.1335     1.8665     2.8159 C.3     
  13 C13           -3.5614     3.2846     2.8661 C.3     
  14 C14           -4.3987     4.1389     3.8200 C.3     
  15 C15           -5.8135     4.2928     3.2582 C.3     
  16 N16           -6.5713     5.2284     4.0930 N.am    
  17 S17           -6.6533     6.8293     3.6774 S.o2    
  18 C18           -8.0611     7.0264     2.6363 C.ar    
  19 C19           -9.2938     7.3184     3.1903 C.ar    
  20 C20          -10.3990     7.4734     2.3762 C.ar    
  21 C21          -10.2713     7.3359     1.0016 C.ar    
  22 C22           -9.0333     7.0430     0.4482 C.ar    
  23 C23           -7.9300     6.8945     1.2662 C.ar    
  24 O24           -6.9368     7.5405     4.8745 O.2     
  25 O25           -5.5155     7.0925     2.8679 O.2     
  26 C26           -7.2564     4.7476     5.2953 C.3     
  27 C27           -8.3559     3.7614     4.8959 C.3     
  28 C28           -8.9709     3.1461     6.1545 C.3     
  29 C29           -9.4397     4.4982     4.1065 C.3     
  30 O30           -4.4604     3.5038     5.0986 O.3     
  31 O31          -11.3572     7.4875     0.1986 O.3     
  32 C32          -11.1514     7.3319    -1.2069 C.3     
  33 C33           -3.3861     1.0594     1.7858 C.ar    
  34 C34           -2.2611     0.3441     2.1513 C.ar    
  35 C35           -1.5755    -0.3962     1.2064 C.ar    
  36 C36           -2.0151    -0.4215    -0.1039 C.ar    
  37 C37           -3.1406     0.2932    -0.4692 C.ar    
  38 C38           -3.8288     1.0299     0.4766 C.ar    
  39 H39            0.8184     3.0975     0.9531 H       
  40 H40            1.9626     0.8447     2.6481 H       
  41 H41            0.4026     0.6666     1.8218 H       
  42 H42            2.1814     4.2098     2.9717 H       
  43 H43            2.9905     2.6349     2.9336 H       
  44 H44            2.8819     4.7659     0.7787 H       
  45 H45            4.3012     3.9712     1.4892 H       
  46 H46            2.3488     2.8987    -0.5662 H       
  47 H47            4.1169     2.9801    -0.6503 H       
  48 H48            2.1905    -0.2465     0.5196 H       
  49 H49            1.4504     1.1501    -0.2843 H       
  50 H50           -1.9818     3.3730     4.2822 H       
  51 H51           -4.0261     1.3965     3.7935 H       
  52 H52           -5.1891     1.9098     2.5476 H       
  53 H53           -3.5875     3.7224     1.8682 H       
  54 H54           -3.9403     5.1222     3.9245 H       
  55 H55           -5.7601     4.6763     2.2393 H       
  56 H56           -6.3110     3.3230     3.2559 H       
  57 H57           -9.3927     7.4250     4.2605 H       
  58 H58          -11.3617     7.7011     2.8094 H       
  59 H59           -8.9314     6.9354    -0.6216 H       
  60 H60           -6.9661     6.6664     0.8358 H       
  61 H61           -6.5395     4.2481     5.9469 H       
  62 H62           -7.7000     5.5921     5.8229 H       
  63 H63           -7.9288     2.9722     4.2771 H       
  64 H64           -9.3980     3.9353     6.7733 H       
  65 H65           -9.7542     2.4435     5.8699 H       
  66 H66           -8.1987     2.6212     6.7169 H       
  67 H67           -9.8716     5.2829     4.7276 H       
  68 H68           -9.0002     4.9424     3.2134 H       
  69 H69          -10.2196     3.7943     3.8159 H       
  70 H70           -4.9369     2.6623     5.0972 H       
  71 H71          -12.0961     7.4780    -1.7308 H       
  72 H72          -10.4268     8.0695    -1.5519 H       
  73 H73          -10.7745     6.3296    -1.4102 H       
  74 H74           -1.9177     0.3638     3.1751 H       
  75 H75           -0.6962    -0.9545     1.4919 H       
  76 H76           -1.4791    -0.9992    -0.8423 H       
  77 H77           -3.4839     0.2737    -1.4930 H       
  78 H78           -4.7102     1.5853     0.1919 H       
@<TRIPOS>BOND
   1    1    2 1
   2    1    3 1
   3    1    9 1
   4    1   39 1
   5    2    7 1
   6    2   40 1
   7    2   41 1
   8    3    4 1
   9    3   42 1
  10    3   43 1
  11    4    5 1
  12    4   44 1
  13    4   45 1
  14    5    6 1
  15    5   46 1
  16    5   47 1
  17    6    7 1
  18    7   48 1
  19    7   49 1
  20    8    9 1
  21    8   10 am
  22    8   11 2
  23   10   13 1
  24   10   50 1
  25   12   13 1
  26   12   33 1
  27   12   51 1
  28   12   52 1
  29   13   14 1
  30   13   53 1
  31   14   15 1
  32   14   30 1
  33   14   54 1
  34   15   16 1
  35   15   55 1
  36   15   56 1
  37   16   17 am
  38   16   26 1
  39   17   18 1
  40   17   24 2
  41   17   25 2
  42   18   19 ar
  43   18   23 ar
  44   19   20 ar
  45   19   57 1
  46   20   21 ar
  47   20   58 1
  48   21   22 ar
  49   21   31 1
  50   22   23 ar
  51   22   59 1
  52   23   60 1
  53   26   27 1
  54   26   61 1
  55   26   62 1
  56   27   28 1
  57   27   29 1
  58   27   63 1
  59   28   64 1
  60   28   65 1
  61   28   66 1
  62   29   67 1
  63   29   68 1
  64   29   69 1
  65   30   70 1
  66   31   32 1
  67   32   71 1
  68   32   72 1
  69   32   73 1
  70   33   34 ar
  71   33   38 ar
  72   34   35 ar
  73   34   74 1
  74   35   36 ar
  75   35   75 1
  76   36   37 ar
  77   36   76 1
  78   37   38 ar
  79   37   77 1
  80   38   78 1

#	End of record

