#	Name: ASD03730244
#	Creating user name:	WinNT
#	Creation time:	15. 06. 2019 20:44

#	Modifying user name:	WinNT
#	Modification time:	15. 06. 2019 20:44

#	Program:	/corina/corina34_cracker 3.40 0067  02.08.2006

@<TRIPOS>MOLECULE
ASD03730244
  60   66    0    0    0
SMALL
NO_CHARGES


@<TRIPOS>ATOM
   1 O1            -0.4719     1.1321     1.3483 O.3     
   2 C2            -0.4013    -0.3041     1.4237 C.3     
   3 O3             0.6733    -0.6411     0.5267 O.3     
   4 C4             1.4929     0.4511     0.5120 C.ar    
   5 C5             0.7876     1.5416     1.0158 C.ar    
   6 C6             2.8057     0.6053     0.1042 C.ar    
   7 C7             3.4303     1.8457     0.1920 C.ar    
   8 C8             2.7127     2.9298     0.6882 C.ar    
   9 C9             1.4052     2.7781     1.1004 C.ar    
  10 O10            4.7053     2.2046    -0.1332 O.3     
  11 C11            3.6357     4.1175     0.6319 C.3     
  12 C12            4.7735     3.6362    -0.2790 C.3     
  13 N13            3.0689     6.2966     1.0222 N.am    
  14 C14            2.9574     5.3386     0.0805 C.2     
  15 C15            4.1355     4.5189     1.9876 C.ar    
  16 C16            4.8345     3.8566     2.9874 C.ar    
  17 C17            5.1591     4.5263     4.1668 C.ar    
  18 C18            4.7823     5.8445     4.3311 C.ar    
  19 C19            4.0879     6.5026     3.3366 C.ar    
  20 C20            3.7560     5.8463     2.1525 C.ar    
  21 O21            2.4162     5.4426    -0.9999 O.2     
  22 C22            2.5327     7.6523     0.8772 C.3     
  23 C23            1.1001     7.6940     1.4127 C.3     
  24 C24            0.5401     9.1098     1.2614 C.3     
  25 C25           -0.8925     9.1515     1.7969 C.3     
  26 C26           -1.4525    10.5673     1.6455 C.3     
  27 O27            6.4981    -1.4182     2.0906 O.3     
  28 C28            7.6520    -1.1117     1.2859 C.3     
  29 O29            7.3470     0.1801     0.7279 O.3     
  30 C30            6.5027     0.7732     1.6220 C.ar    
  31 C31            5.9803    -0.2105     2.4608 C.ar    
  32 C32            6.1311     2.0942     1.7922 C.ar    
  33 C33            5.2347     2.4399     2.8020 C.ar    
  34 C34            4.7156     1.4532     3.6373 C.ar    
  35 C35            5.0894     0.1357     3.4651 C.ar    
  36 H36           -0.1669    -0.6233     2.4392 H       
  37 H37           -1.3362    -0.7518     1.0866 H       
  38 H38            3.3497    -0.2429    -0.2847 H       
  39 H39            0.8618     3.6258     1.4908 H       
  40 H40            5.7345     4.0153     0.0687 H       
  41 H41            4.5918     3.9291    -1.3131 H       
  42 H42            5.7031     4.0163     4.9481 H       
  43 H43            5.0332     6.3642     5.2440 H       
  44 H44            3.7987     7.5337     3.4770 H       
  45 H45            3.1518     8.3501     1.4410 H       
  46 H46            2.5353     7.9333    -0.1759 H       
  47 H47            0.4810     6.9962     0.8490 H       
  48 H48            1.0975     7.4130     2.4659 H       
  49 H49            1.1592     9.8076     1.8252 H       
  50 H50            0.5427     9.3908     0.2082 H       
  51 H51           -1.5116     8.4537     1.2331 H       
  52 H52           -0.8951     8.8705     2.8500 H       
  53 H53           -0.8334    11.2651     2.2093 H       
  54 H54           -1.4499    10.8484     0.5924 H       
  55 H55           -2.4731    10.5970     2.0270 H       
  56 H56            8.5477    -1.0597     1.9048 H       
  57 H57            7.7744    -1.8513     0.4947 H       
  58 H58            6.5351     2.8572     1.1434 H       
  59 H59            4.0213     1.7193     4.4206 H       
  60 H60            4.6859    -0.6277     4.1138 H       
@<TRIPOS>BOND
   1    1    2 1
   2    1    5 1
   3    2    3 1
   4    2   36 1
   5    2   37 1
   6    3    4 1
   7    4    5 ar
   8    4    6 ar
   9    5    9 ar
  10    6    7 ar
  11    6   38 1
  12    7    8 ar
  13    7   10 1
  14    8    9 ar
  15    8   11 1
  16    9   39 1
  17   10   12 1
  18   11   12 1
  19   11   14 1
  20   11   15 1
  21   12   40 1
  22   12   41 1
  23   13   14 am
  24   13   20 1
  25   13   22 1
  26   14   21 2
  27   15   16 ar
  28   15   20 ar
  29   16   17 ar
  30   16   33 1
  31   17   18 ar
  32   17   42 1
  33   18   19 ar
  34   18   43 1
  35   19   20 ar
  36   19   44 1
  37   22   23 1
  38   22   45 1
  39   22   46 1
  40   23   24 1
  41   23   47 1
  42   23   48 1
  43   24   25 1
  44   24   49 1
  45   24   50 1
  46   25   26 1
  47   25   51 1
  48   25   52 1
  49   26   53 1
  50   26   54 1
  51   26   55 1
  52   27   28 1
  53   27   31 1
  54   28   29 1
  55   28   56 1
  56   28   57 1
  57   29   30 1
  58   30   31 ar
  59   30   32 ar
  60   31   35 ar
  61   32   33 ar
  62   32   58 1
  63   33   34 ar
  64   34   35 ar
  65   34   59 1
  66   35   60 1

#	End of record

