#	Name: ASD01882754
#	Creating user name:	WinNT
#	Creation time:	15. 06. 2019 19:45

#	Modifying user name:	WinNT
#	Modification time:	15. 06. 2019 19:45

#	Program:	/corina/corina34_cracker 3.40 0067  02.08.2006

@<TRIPOS>MOLECULE
ASD01882754
  45   46    0    0    0
SMALL
NO_CHARGES


@<TRIPOS>ATOM
   1 O1             4.3332     1.0928     0.2077 O.3     
   2 C2             4.3100    -0.2941     0.5509 C.3     
   3 C3             5.5117     0.6039     0.8512 C.3     
   4 C4             3.4292    -0.7231     1.7262 C.3     
   5 O5             2.4005    -1.5967     1.2566 O.3     
   6 C6             1.5252    -2.0722     2.1811 C.ar    
   7 C7             0.5016    -2.9251     1.7946 C.ar    
   8 C8            -0.3869    -3.4071     2.7363 C.ar    
   9 C9            -0.2566    -3.0401     4.0630 C.ar    
  10 C10            0.7625    -2.1898     4.4506 C.ar    
  11 C11            1.6573    -1.7100     3.5137 C.ar    
  12 C12           -1.2272    -3.5673     5.0881 C.3     
  13 C13           -0.8636    -3.0132     6.4671 C.3     
  14 C14           -1.9868    -3.3302     7.4565 C.3     
  15 C15           -2.4851    -4.7576     7.2221 C.3     
  16 C16           -1.4577    -3.2030     8.8865 C.3     
  17 C17           -3.1407    -2.3469     7.2503 C.3     
  18 C18           -2.6460    -3.1287     4.7201 C.3     
  19 C19           -1.1574    -5.0955     5.1179 C.3     
  20 H20            4.4070    -1.0191    -0.2572 H       
  21 H21            6.4066     0.4752     0.2423 H       
  22 H22            5.6822     0.8946     1.8878 H       
  23 H23            4.0381    -1.2433     2.4657 H       
  24 H24            2.9776     0.1579     2.1823 H       
  25 H25            0.3992    -3.2118     0.7584 H       
  26 H26           -1.1841    -4.0708     2.4359 H       
  27 H27            0.8618    -1.9040     5.4873 H       
  28 H28            2.4560    -1.0497     3.8178 H       
  29 H29            0.0634    -3.4725     6.8104 H       
  30 H30           -0.7313    -1.9332     6.4014 H       
  31 H31           -1.6324    -5.4328     7.1497 H       
  32 H32           -3.1200    -5.0620     8.0542 H       
  33 H33           -3.0578    -4.7950     6.2955 H       
  34 H34           -1.1027    -2.1860     9.0534 H       
  35 H35           -2.2579    -3.4288     9.5913 H       
  36 H36           -0.6357    -3.9035     9.0334 H       
  37 H37           -3.9371    -2.8341     6.6878 H       
  38 H38           -3.5234    -2.0274     8.2195 H       
  39 H39           -2.7835    -1.4786     6.6965 H       
  40 H40           -2.7115    -2.9772     3.6427 H       
  41 H41           -3.3546    -3.8998     5.0223 H       
  42 H42           -2.8827    -2.1965     5.2331 H       
  43 H43           -0.2625    -5.4079     5.6562 H       
  44 H44           -2.0403    -5.4897     5.6212 H       
  45 H45           -1.1197    -5.4774     4.0978 H       
@<TRIPOS>BOND
   1    1    2 1
   2    1    3 1
   3    2    3 1
   4    2    4 1
   5    2   20 1
   6    3   21 1
   7    3   22 1
   8    4    5 1
   9    4   23 1
  10    4   24 1
  11    5    6 1
  12    6    7 ar
  13    6   11 ar
  14    7    8 ar
  15    7   25 1
  16    8    9 ar
  17    8   26 1
  18    9   10 ar
  19    9   12 1
  20   10   11 ar
  21   10   27 1
  22   11   28 1
  23   12   13 1
  24   12   18 1
  25   12   19 1
  26   13   14 1
  27   13   29 1
  28   13   30 1
  29   14   15 1
  30   14   16 1
  31   14   17 1
  32   15   31 1
  33   15   32 1
  34   15   33 1
  35   16   34 1
  36   16   35 1
  37   16   36 1
  38   17   37 1
  39   17   38 1
  40   17   39 1
  41   18   40 1
  42   18   41 1
  43   18   42 1
  44   19   43 1
  45   19   44 1
  46   19   45 1

#	End of record

