#	Name: ASD01881285
#	Creating user name:	WinNT
#	Creation time:	15. 06. 2019 19:42

#	Modifying user name:	WinNT
#	Modification time:	15. 06. 2019 19:42

#	Program:	/corina/corina34_cracker 3.40 0067  02.08.2006

@<TRIPOS>MOLECULE
ASD01881285
  43   45    0    0    0
SMALL
NO_CHARGES


@<TRIPOS>ATOM
   1 C1            -0.0162     1.3398     0.0094 C.2     
   2 N2             0.0021    -0.0041     0.0020 N.am    
   3 C3             1.3975    -0.4574    -0.0137 C.3     
   4 C4             2.2453     0.7903    -0.0151 C.ar    
   5 C5             3.6007     1.0050    -0.0273 C.ar    
   6 C6             4.0976     2.3066    -0.0255 C.ar    
   7 C7             3.2198     3.3874    -0.0113 C.ar    
   8 C8             1.8605     3.1761     0.0009 C.ar    
   9 C9             1.3571     1.8711    -0.0009 C.ar    
  10 O10           -1.0238     2.0204     0.0181 O.2     
  11 C11           -1.1772    -0.8732     0.0086 C.3     
  12 C12           -1.6012    -1.1686    -1.4315 C.3     
  13 C13           -2.8328    -2.0763    -1.4246 C.3     
  14 C14           -3.2567    -2.3716    -2.8648 C.3     
  15 N15            5.4706     2.5264    -0.0373 N.pl3   
  16 C16            5.9934     3.8949    -0.0354 C.3     
  17 C17            8.2032     3.5251     1.0946 C.ar    
  18 C18            7.4998     3.8572    -0.0498 C.ar    
  19 C19            8.1980     4.1542    -1.2096 C.ar    
  20 C20            9.5835     4.1066    -1.1772 C.ar    
  21 C21           10.2190     3.7667     0.0029 C.ar    
  22 N22            9.5223     3.4892     1.0890 N.ar    
  23 Cl23           7.3408     3.1579     2.5558 Cl      
  24 Br24          12.1078     3.6979     0.0611 Br      
  25 H25            1.6082    -1.0527     0.8747 H       
  26 H26            1.5912    -1.0431    -0.9124 H       
  27 H27            4.2810     0.1663    -0.0380 H       
  28 H28            3.6076     4.3954    -0.0095 H       
  29 H29            1.1827     4.0169     0.0123 H       
  30 H30           -0.9369    -1.8078     0.5155 H       
  31 H31           -1.9929    -0.3750     0.5326 H       
  32 H32           -1.8414    -0.2340    -1.9384 H       
  33 H33           -0.7855    -1.6668    -1.9555 H       
  34 H34           -2.5925    -3.0109    -0.9177 H       
  35 H35           -3.6484    -1.5780    -0.9007 H       
  36 H36           -2.4410    -2.8699    -3.3887 H       
  37 H37           -4.1341    -3.0183    -2.8598 H       
  38 H38           -3.4970    -1.4371    -3.3717 H       
  39 H39            6.0822     1.7735    -0.0469 H       
  40 H40            5.6346     4.4221    -0.9194 H       
  41 H41            5.6514     4.4132     0.8604 H       
  42 H42            7.6752     4.4163    -2.1176 H       
  43 H43           10.1591     4.3318    -2.0628 H       
@<TRIPOS>BOND
   1    1    2 am
   2    1    9 1
   3    1   10 2
   4    2    3 1
   5    2   11 1
   6    3    4 1
   7    3   25 1
   8    3   26 1
   9    4    5 ar
  10    4    9 ar
  11    5    6 ar
  12    5   27 1
  13    6    7 ar
  14    6   15 1
  15    7    8 ar
  16    7   28 1
  17    8    9 ar
  18    8   29 1
  19   11   12 1
  20   11   30 1
  21   11   31 1
  22   12   13 1
  23   12   32 1
  24   12   33 1
  25   13   14 1
  26   13   34 1
  27   13   35 1
  28   14   36 1
  29   14   37 1
  30   14   38 1
  31   15   16 1
  32   15   39 1
  33   16   18 1
  34   16   40 1
  35   16   41 1
  36   17   18 ar
  37   17   22 ar
  38   17   23 1
  39   18   19 ar
  40   19   20 ar
  41   19   42 1
  42   20   21 ar
  43   20   43 1
  44   21   22 ar
  45   21   24 1

#	End of record

