#	Name: ASD01840398
#	Creating user name:	WinNT
#	Creation time:	15. 06. 2019 19:37

#	Modifying user name:	WinNT
#	Modification time:	15. 06. 2019 19:37

#	Program:	/corina/corina34_cracker 3.40 0067  02.08.2006

@<TRIPOS>MOLECULE
ASD01840398
  52   55    0    0    0
SMALL
NO_CHARGES


@<TRIPOS>ATOM
   1 C1             0.9528     3.3867    -1.1288 C.ar    
   2 C2             0.7568     2.2121    -1.8214 C.ar    
   3 N3             1.6684     1.2556    -1.7806 N.ar    
   4 N4             2.7557     1.3657    -1.1128 N.ar    
   5 C5             2.1466     3.5285    -0.3852 C.ar    
   6 C6             2.6177     4.6337     0.4288 C.2     
   7 C7             3.0513     2.4585    -0.4051 C.ar    
   8 S8             4.4582     2.8413     0.5769 S.3     
   9 C9             3.8265     4.4193     1.0048 C.2     
  10 C10           -0.0725     4.4905    -1.1678 C.3     
  11 C11           -0.5012     2.0167    -2.6277 C.3     
  12 N12            1.8952     5.8065     0.6020 N.pl3   
  13 C13            4.5134     5.3791     1.8680 C.2     
  14 O14            3.9993     6.4556     2.1113 O.2     
  15 N15            5.7155     5.0720     2.3943 N.am    
  16 C16            6.4037     6.0336     3.2592 C.3     
  17 C17            5.9446     5.8834     4.7336 C.3     
  18 C18            7.1612     6.4017     5.5290 C.3     
  19 N19            8.3364     6.2872     4.6530 N.am    
  20 C20            7.9129     5.7016     3.3680 C.3     
  21 C21            9.5926     6.6571     4.9715 C.2     
  22 O22           10.5151     6.3773     4.2306 O.2     
  23 N23            9.8262     7.3374     6.1114 N.am    
  24 C24            8.7705     7.5068     7.1223 C.3     
  25 C25            9.3354     7.0915     8.4856 C.3     
  26 O26           10.5587     7.7925     8.7215 O.3     
  27 C27           11.5939     7.4961     7.7812 C.3     
  28 C28           11.1464     7.9273     6.3844 C.3     
  29 H29           -0.7263     4.4100    -0.2993 H       
  30 H30            0.4327     5.4563    -1.1540 H       
  31 H31           -0.6655     4.4036    -2.0782 H       
  32 H32           -0.3410     2.3769    -3.6440 H       
  33 H33           -0.7553     0.9571    -2.6536 H       
  34 H34           -1.3173     2.5749    -2.1689 H       
  35 H35            0.9397     5.8167     0.4350 H       
  36 H36            2.3459     6.6157     0.8901 H       
  37 H37            6.1251     4.2144     2.2005 H       
  38 H38            6.2519     7.0531     2.9046 H       
  39 H39            5.0660     6.4984     4.9285 H       
  40 H40            5.7454     4.8384     4.9709 H       
  41 H41            7.0059     7.4443     5.8064 H       
  42 H42            7.3050     5.7955     6.4233 H       
  43 H43            8.0643     4.6222     3.3748 H       
  44 H44            8.4620     6.1574     2.5441 H       
  45 H45            8.4591     8.5508     7.1566 H       
  46 H46            7.9172     6.8768     6.8712 H       
  47 H47            8.6175     7.3385     9.2677 H       
  48 H48            9.5243     6.0180     8.4896 H       
  49 H49           12.5010     8.0342     8.0565 H       
  50 H50           11.7911     6.4241     7.7827 H       
  51 H51           11.8657     7.5756     5.6448 H       
  52 H52           11.0783     9.0144     6.3431 H       
@<TRIPOS>BOND
   1    1    2 ar
   2    1    5 ar
   3    1   10 1
   4    2   11 1
   5    2    3 ar
   6    3    4 ar
   7    4    7 ar
   8    5    7 ar
   9    5    6 1
  10    6    9 2
  11    6   12 1
  12    7    8 1
  13    8    9 1
  14    9   13 1
  15   10   29 1
  16   10   30 1
  17   10   31 1
  18   11   32 1
  19   11   33 1
  20   11   34 1
  21   12   35 1
  22   12   36 1
  23   13   14 2
  24   13   15 am
  25   15   16 1
  26   15   37 1
  27   16   17 1
  28   16   20 1
  29   16   38 1
  30   17   18 1
  31   17   39 1
  32   17   40 1
  33   18   19 1
  34   18   41 1
  35   18   42 1
  36   19   20 1
  37   19   21 am
  38   20   43 1
  39   20   44 1
  40   21   22 2
  41   21   23 am
  42   23   24 1
  43   23   28 1
  44   24   25 1
  45   24   45 1
  46   24   46 1
  47   25   26 1
  48   25   47 1
  49   25   48 1
  50   26   27 1
  51   27   28 1
  52   27   49 1
  53   27   50 1
  54   28   51 1
  55   28   52 1

#	End of record

