#	Name: ASD02408099
#	Creating user name:	WinNT
#	Creation time:	15. 06. 2019 20:21

#	Modifying user name:	WinNT
#	Modification time:	15. 06. 2019 20:21

#	Program:	/corina/corina34_cracker 3.40 0067  02.08.2006

@<TRIPOS>MOLECULE
ASD02408099
  41   43    0    0    0
SMALL
NO_CHARGES


@<TRIPOS>ATOM
   1 C1            -0.1257     1.5693     0.0452 C.ar    
   2 C2            -0.1685     0.1891     0.0931 C.ar    
   3 C3             1.2019     2.2821     0.0263 C.3     
   4 C4             1.5341     2.6882    -1.3864 C.2     
   5 N5             2.6876     3.3429    -1.6217 N.am    
   6 N6             0.6969     2.3891    -2.3423 N.2     
   7 C7             0.9397     2.7241    -3.6159 C.2     
   8 C8             2.1223     3.4132    -3.9316 C.2     
   9 C9             3.0170     3.7211    -2.8746 C.2     
  10 N10            0.0425     2.3970    -4.6028 N.pl3   
  11 C11           -0.2382     3.1975    -5.8085 C.3     
  12 O12            4.0575     4.3175    -3.0925 O.2     
  13 C13           -1.3865    -0.4652     0.1100 C.ar    
  14 C14           -2.5625     0.2605     0.0790 C.ar    
  15 C15           -2.5222     1.6413     0.0315 C.ar    
  16 C16           -1.3032     2.2972     0.0088 C.ar    
  17 F17           -1.2626     3.6468    -0.0372 F       
  18 C18           -1.6662     2.7788    -6.2389 C.3     
  19 C19           -1.6586     1.2625    -5.9103 C.3     
  20 C20           -0.7926     1.1874    -4.6350 C.3     
  21 C21            0.0898    -0.0617    -4.6780 C.3     
  22 O22            0.8329    -0.0782    -5.8985 O.3     
  23 C23            2.4186     3.7891    -5.2812 C.1     
  24 N24            2.6536     4.0874    -6.3519 N.1     
  25 H25            0.7497    -0.3790     0.1170 H       
  26 H26            1.1466     3.1700     0.6561 H       
  27 H27            1.9773     1.6160     0.4047 H       
  28 H28            3.2858     3.5442    -0.8850 H       
  29 H29           -0.2096     4.2613    -5.5728 H       
  30 H30            0.4791     2.9630    -6.5950 H       
  31 H31           -1.4190    -1.5440     0.1471 H       
  32 H32           -3.5133    -0.2516     0.0916 H       
  33 H33           -3.4412     2.2081     0.0070 H       
  34 H34           -2.4205     3.3022    -5.6514 H       
  35 H35           -1.8179     2.9467    -7.3052 H       
  36 H36           -2.6696     0.9053    -5.7143 H       
  37 H37           -1.1979     0.6949    -6.7188 H       
  38 H38           -1.4329     1.1614    -3.7532 H       
  39 H39            0.7787    -0.0492    -3.8334 H       
  40 H40           -0.5372    -0.9516    -4.6223 H       
  41 H41            1.4154    -0.8441    -5.9940 H       
@<TRIPOS>BOND
   1    1    2 ar
   2    1    3 1
   3    1   16 ar
   4    2   13 ar
   5    2   25 1
   6    3    4 1
   7    3   26 1
   8    3   27 1
   9    4    5 1
  10    4    6 2
  11    5    9 am
  12    5   28 1
  13    6    7 1
  14    7    8 2
  15    7   10 1
  16    8    9 1
  17    8   23 1
  18    9   12 2
  19   10   11 1
  20   10   20 1
  21   11   18 1
  22   11   29 1
  23   11   30 1
  24   13   14 ar
  25   13   31 1
  26   14   15 ar
  27   14   32 1
  28   15   16 ar
  29   15   33 1
  30   16   17 1
  31   18   19 1
  32   18   34 1
  33   18   35 1
  34   19   20 1
  35   19   36 1
  36   19   37 1
  37   20   21 1
  38   20   38 1
  39   21   22 1
  40   21   39 1
  41   21   40 1
  42   22   41 1
  43   23   24 3

#	End of record

