#	Name: ASD01884514
#	Creating user name:	WinNT
#	Creation time:	15. 06. 2019 19:48

#	Modifying user name:	WinNT
#	Modification time:	15. 06. 2019 19:48

#	Program:	/corina/corina34_cracker 3.40 0067  02.08.2006

@<TRIPOS>MOLECULE
ASD01884514
  40   42    0    0    0
SMALL
NO_CHARGES


@<TRIPOS>ATOM
   1 C1            -0.0391     1.3499     0.0669 C.2     
   2 C2            -0.0104    -0.0136     0.0641 C.2     
   3 C3             1.2271    -0.6743    -0.0170 C.2     
   4 C4             2.3748     0.0471    -0.0912 C.2     
   5 N5             2.3396     1.4064    -0.0875 N.am    
   6 C6             1.1677     2.0649    -0.0112 C.2     
   7 C7             3.5914     2.1633    -0.1680 C.3     
   8 O8             1.1538     3.2858    -0.0086 O.2     
   9 C9             3.9286     2.4242    -1.6134 C.ar    
  10 C10            3.4660     3.5691    -2.2350 C.ar    
  11 C11            3.7749     3.8090    -3.5607 C.ar    
  12 C12            4.5472     2.9031    -4.2656 C.ar    
  13 C13            5.0099     1.7575    -3.6430 C.ar    
  14 C14            4.7051     1.5215    -2.3157 C.ar    
  15 Cl15           4.9351     3.2034    -5.9308 Cl      
  16 O16            1.2751    -2.0341    -0.0206 O.3     
  17 C17            0.8930    -2.6893     1.1078 C.ar    
  18 C18            0.8159    -4.0744     1.1133 C.ar    
  19 C19            0.4282    -4.7399     2.2598 C.ar    
  20 C20            0.1155    -4.0234     3.4055 C.ar    
  21 C21            0.1921    -2.6384     3.4000 C.ar    
  22 C22            0.5857    -1.9730     2.2554 C.ar    
  23 O23           -0.2667    -4.6786     4.5341 O.3     
  24 C24           -0.5739    -3.8776     5.6768 C.3     
  25 H25           -0.9810     1.8751     0.1241 H       
  26 H26           -0.9286    -0.5792     0.1238 H       
  27 H27            3.3245    -0.4634    -0.1534 H       
  28 H28            3.4764     3.1125     0.3554 H       
  29 H29            4.3939     1.5884     0.2942 H       
  30 H30            2.8628     4.2760    -1.6847 H       
  31 H31            3.4131     4.7033    -4.0462 H       
  32 H32            5.6129     1.0499    -4.1927 H       
  33 H33            5.0662     0.6272    -1.8295 H       
  34 H34            1.0587    -4.6324     0.2210 H       
  35 H35            0.3682    -5.8183     2.2641 H       
  36 H36           -0.0518    -2.0806     4.2921 H       
  37 H37            0.6457    -0.8947     2.2513 H       
  38 H38            0.3034    -3.2955     5.9590 H       
  39 H39           -1.3959    -3.2030     5.4373 H       
  40 H40           -0.8635    -4.5232     6.5059 H       
@<TRIPOS>BOND
   1    1    2 2
   2    1    6 1
   3    1   25 1
   4    2    3 1
   5    2   26 1
   6    3    4 2
   7    3   16 1
   8    4    5 1
   9    4   27 1
  10    5    6 am
  11    5    7 1
  12    6    8 2
  13    7    9 1
  14    7   28 1
  15    7   29 1
  16    9   10 ar
  17    9   14 ar
  18   10   11 ar
  19   10   30 1
  20   11   12 ar
  21   11   31 1
  22   12   13 ar
  23   12   15 1
  24   13   14 ar
  25   13   32 1
  26   14   33 1
  27   16   17 1
  28   17   18 ar
  29   17   22 ar
  30   18   19 ar
  31   18   34 1
  32   19   20 ar
  33   19   35 1
  34   20   21 ar
  35   20   23 1
  36   21   22 ar
  37   21   36 1
  38   22   37 1
  39   23   24 1
  40   24   38 1
  41   24   39 1
  42   24   40 1

#	End of record

