#	Name: ASD03240526
#	Creating user name:	WinNT
#	Creation time:	15. 06. 2019 20:35

#	Modifying user name:	WinNT
#	Modification time:	15. 06. 2019 20:35

#	Program:	/corina/corina34_cracker 3.40 0067  02.08.2006

@<TRIPOS>MOLECULE
ASD03240526
  50   55    0    0    0
SMALL
NO_CHARGES


@<TRIPOS>ATOM
   1 C1            -0.0166     1.3754     0.0096 C.ar    
   2 C2             0.0021    -0.0041     0.0020 C.ar    
   3 N3             1.1422    -0.6682    -0.0058 N.ar    
   4 C4             2.3145    -0.0482    -0.0058 C.ar    
   5 C5             2.3702     1.3444    -0.0123 C.ar    
   6 C6             1.1861     2.0697     0.0018 C.ar    
   7 N7             3.4823    -0.8057     0.0217 N.pl3   
   8 C8             4.3599    -0.7201     1.0993 C.ar    
   9 C9             4.9962     0.4885     1.4035 C.ar    
  10 C10            4.7636     1.6817     0.5621 C.2     
  11 N11            3.5943     2.0267    -0.0509 N.pl3   
  12 C12            4.6061    -1.8399     1.8821 C.ar    
  13 C13            5.4660    -1.7549     2.9606 C.ar    
  14 C14            6.0871    -0.5570     3.2695 C.ar    
  15 C15            5.8575     0.5642     2.4978 C.ar    
  16 N16            5.6703     2.5976     0.2792 N.2     
  17 C17            5.1345     3.5333    -0.5064 C.2     
  18 C18            3.8305     3.2046    -0.7350 C.2     
  19 C19            2.8604     3.9599    -1.5542 C.ar    
  20 C20            2.7662     5.3473    -1.4282 C.ar    
  21 C21            2.0376     3.2903    -2.4620 C.ar    
  22 C22            1.1340     4.0017    -3.2238 C.ar    
  23 C23            1.0422     5.3758    -3.0900 C.ar    
  24 C24            1.8582     6.0464    -2.1961 C.ar    
  25 Cl25           5.9555     4.9299    -1.1302 Cl      
  26 C26            0.0530     6.1464    -3.9260 C.3     
  27 N27           -1.0281     5.3026    -4.4527 N.3     
  28 C28           -0.4445     7.4385    -3.2569 C.3     
  29 C29           -0.3532     8.0982    -4.6430 C.3     
  30 C30            0.7105     7.0408    -4.9902 C.3     
  31 H31           -0.9555     1.9091     0.0170 H       
  32 H32           -0.9306    -0.5486     0.0029 H       
  33 H33            1.2002     3.1496     0.0064 H       
  34 H34            3.6865    -1.3996    -0.7175 H       
  35 H35            4.1250    -2.7781     1.6483 H       
  36 H36            5.6543    -2.6287     3.5666 H       
  37 H37            6.7537    -0.4995     4.1173 H       
  38 H38            6.3432     1.4977     2.7410 H       
  39 H39            3.4025     5.8719    -0.7308 H       
  40 H40            2.1088     2.2178    -2.5679 H       
  41 H41            0.4970     3.4850    -3.9264 H       
  42 H42            1.7812     7.1190    -2.0964 H       
  43 H43           -0.6574     4.4798    -4.9040 H       
  44 H44           -1.6796     5.0528    -3.7239 H       
  45 H45           -1.4622     7.3676    -2.8731 H       
  46 H46            0.2552     7.8511    -2.5300 H       
  47 H47           -1.2663     8.0065    -5.2311 H       
  48 H48            0.0343     9.1167    -4.6172 H       
  49 H49            1.7265     7.3442    -4.7374 H       
  50 H50            0.6240     6.6511    -6.0044 H       
@<TRIPOS>BOND
   1    1    2 ar
   2    1    6 ar
   3    1   31 1
   4    2    3 ar
   5    2   32 1
   6    3    4 ar
   7    4    5 ar
   8    4    7 1
   9    5    6 ar
  10    5   11 1
  11    6   33 1
  12    7    8 1
  13    7   34 1
  14    8    9 ar
  15    8   12 ar
  16    9   10 1
  17    9   15 ar
  18   10   11 1
  19   10   16 2
  20   11   18 1
  21   12   13 ar
  22   12   35 1
  23   13   14 ar
  24   13   36 1
  25   14   15 ar
  26   14   37 1
  27   15   38 1
  28   16   17 1
  29   17   18 2
  30   17   25 1
  31   18   19 1
  32   19   20 ar
  33   19   21 ar
  34   20   24 ar
  35   20   39 1
  36   21   22 ar
  37   21   40 1
  38   22   23 ar
  39   22   41 1
  40   23   24 ar
  41   23   26 1
  42   24   42 1
  43   26   27 1
  44   26   28 1
  45   26   30 1
  46   27   43 1
  47   27   44 1
  48   28   29 1
  49   28   45 1
  50   28   46 1
  51   29   30 1
  52   29   47 1
  53   29   48 1
  54   30   49 1
  55   30   50 1

#	End of record

