#	Name: ASD01420158
#	Creating user name:	WinNT
#	Creation time:	15. 06. 2019 19:20

#	Modifying user name:	WinNT
#	Modification time:	15. 06. 2019 19:20

#	Program:	/corina/corina34_cracker 3.40 0067  02.08.2006

@<TRIPOS>MOLECULE
ASD01420158
  52   54    0    0    0
SMALL
NO_CHARGES


@<TRIPOS>ATOM
   1 C1             2.3782     0.1782     1.0054 C.ar    
   2 C2             1.6499    -0.7951     0.3535 C.ar    
   3 C3             0.9161    -0.4887    -0.7829 C.ar    
   4 C4             0.9033     0.7869    -1.2759 C.ar    
   5 C5             2.3793     1.4802     0.5228 C.ar    
   6 O6             2.9772     2.6177     0.9322 O.3     
   7 C7             1.6333     1.7852    -0.6300 C.ar    
   8 C8             1.8439     3.2147    -0.8704 C.2     
   9 C9             2.6659     3.6445     0.1168 C.2     
  10 C10            1.2626     4.0405    -1.9890 C.3     
  11 C11            3.1495     5.0318     0.2755 C.ar    
  12 C12            2.2549     6.0998     0.1839 C.ar    
  13 C13            2.7100     7.3923     0.3330 C.ar    
  14 C14            4.0562     7.6330     0.5740 C.ar    
  15 C15            4.9493     6.5735     0.6658 C.ar    
  16 C16            4.5014     5.2778     0.5232 C.ar    
  17 O17            4.5009     8.9085     0.7199 O.3     
  18 C18            0.1282    -1.5684    -1.4791 C.3     
  19 C19           -1.2837    -1.6280    -0.8927 C.3     
  20 C20           -2.0715    -2.7077    -1.5889 C.2     
  21 O21           -1.5566    -3.3623    -2.4642 O.2     
  22 O22           -3.3453    -2.9422    -1.2365 O.3     
  23 C23            5.8975     9.0845     0.9658 C.3     
  24 C24            6.2075    10.5767     1.1010 C.3     
  25 N25            5.5329    11.1111     2.2915 N.3     
  26 C26            6.0890    10.5260     3.5188 C.3     
  27 C27            5.6091    12.5777     2.3259 C.3     
  28 H28            2.9427    -0.0708     1.8918 H       
  29 H29            1.6514    -1.8066     0.7318 H       
  30 H30            0.3309     1.0204    -2.1615 H       
  31 H31            0.3542     4.5334    -1.6426 H       
  32 H32            1.9878     4.7924    -2.3003 H       
  33 H33            1.0254     3.3931    -2.8332 H       
  34 H34            1.2078     5.9134    -0.0039 H       
  35 H35            2.0186     8.2190     0.2619 H       
  36 H36            5.9956     6.7649     0.8530 H       
  37 H37            5.1959     4.4541     0.5988 H       
  38 H38            0.0700    -1.3460    -2.5446 H       
  39 H39            0.6224    -2.5291    -1.3349 H       
  40 H40           -1.2255    -1.8504     0.1728 H       
  41 H41           -1.7779    -0.6673    -1.0369 H       
  42 H42           -3.8100    -3.6448    -1.7114 H       
  43 H43            6.1716     8.5715     1.8877 H       
  44 H44            6.4680     8.6687     0.1353 H       
  45 H45            7.2840    10.7167     1.1998 H       
  46 H46            5.8525    11.1032     0.2151 H       
  47 H47            7.1514    10.7608     3.5842 H       
  48 H48            5.5717    10.9389     4.3849 H       
  49 H49            5.9566     9.4443     3.4981 H       
  50 H50            5.1278    12.9875     1.4380 H       
  51 H51            5.1020    12.9470     3.2173 H       
  52 H52            6.6542    12.8868     2.3481 H       
@<TRIPOS>BOND
   1    1    2 ar
   2    1    5 ar
   3    1   28 1
   4    2    3 ar
   5    2   29 1
   6    3    4 ar
   7    3   18 1
   8    4    7 ar
   9    4   30 1
  10    5    7 ar
  11    5    6 1
  12    6    9 1
  13    7    8 1
  14    8    9 2
  15    8   10 1
  16    9   11 1
  17   10   31 1
  18   10   32 1
  19   10   33 1
  20   11   12 ar
  21   11   16 ar
  22   12   13 ar
  23   12   34 1
  24   13   14 ar
  25   13   35 1
  26   14   15 ar
  27   14   17 1
  28   15   16 ar
  29   15   36 1
  30   16   37 1
  31   17   23 1
  32   18   19 1
  33   18   38 1
  34   18   39 1
  35   19   20 1
  36   19   40 1
  37   19   41 1
  38   20   21 2
  39   20   22 1
  40   22   42 1
  41   23   24 1
  42   23   43 1
  43   23   44 1
  44   24   25 1
  45   24   45 1
  46   24   46 1
  47   25   26 1
  48   25   27 1
  49   26   47 1
  50   26   48 1
  51   26   49 1
  52   27   50 1
  53   27   51 1
  54   27   52 1

#	End of record

