#	Name: ASD01885131
#	Creating user name:	WinNT
#	Creation time:	15. 06. 2019 19:49

#	Modifying user name:	WinNT
#	Modification time:	15. 06. 2019 19:49

#	Program:	/corina/corina34_cracker 3.40 0067  02.08.2006

@<TRIPOS>MOLECULE
ASD01885131
  58   62    0    0    0
SMALL
NO_CHARGES


@<TRIPOS>ATOM
   1 C1             0.0141     1.3557     0.2031 C.2     
   2 C2             1.3352    -0.6334     0.2454 C.2     
   3 C3             2.4159     0.1095    -0.2599 C.2     
   4 C4             2.2773     1.4271    -0.5168 C.2     
   5 N5             1.0881     2.0553    -0.2902 N.pl3   
   6 C6             0.6572     3.3362    -0.4484 C.2     
   7 N7            -0.5940     3.3800    -0.0696 N.2     
   8 N8            -0.9857     2.2153     0.3125 N.2     
   9 C9             1.4729     4.4933    -0.9649 C.3     
  10 C10            1.4960    -2.1045     0.5304 C.3     
  11 C11            1.3315     4.5782    -2.4860 C.3     
  12 N12            1.7130    -2.8266    -0.7303 N.3     
  13 C13            2.2359    -4.1760    -0.4806 C.3     
  14 C14            2.5860    -4.8434    -1.8126 C.3     
  15 C15            1.3312    -4.9157    -2.6870 C.3     
  16 C16            0.7791    -3.5023    -2.8918 C.3     
  17 C17            0.4814    -2.8737    -1.5286 C.3     
  18 C18            1.6825    -5.5176    -4.0232 C.ar    
  19 C19            0.1434    -0.0197     0.4761 C.2     
  20 C20           -1.0248    -0.8023     1.0181 C.3     
  21 C21            1.9931     5.7635    -3.1919 C.3     
  22 C22            2.5920     4.3619    -3.3258 C.3     
  23 C23            0.7037    -5.6842    -4.9851 C.ar    
  24 C24            1.0260    -6.2363    -6.2107 C.ar    
  25 C25            2.3271    -6.6215    -6.4746 C.ar    
  26 C26            3.3060    -6.4541    -5.5131 C.ar    
  27 C27            2.9846    -5.8980    -4.2890 C.ar    
  28 C28            0.2758    -5.7817    -1.9963 C.3     
  29 F29           -0.8251    -1.0555     2.3794 F       
  30 F30           -2.2003    -0.0630     0.8488 F       
  31 F31           -1.1334    -2.0151     0.3293 F       
  32 H32            3.3628    -0.3766    -0.4432 H       
  33 H33            3.1145     1.9885    -0.9046 H       
  34 H34            1.1155     5.4194    -0.5146 H       
  35 H35            2.5208     4.3438    -0.7052 H       
  36 H36            2.3522    -2.2557     1.1877 H       
  37 H37            0.5952    -2.4814     1.0146 H       
  38 H38            0.3875     4.2140    -2.8915 H       
  39 H39            3.1304    -4.1100     0.1387 H       
  40 H40            1.4802    -4.7686     0.0350 H       
  41 H41            3.3517    -4.2586    -2.3224 H       
  42 H42            2.9594    -5.8506    -1.6278 H       
  43 H43            1.5163    -2.8964    -3.4186 H       
  44 H44           -0.1384    -3.5513    -3.4781 H       
  45 H45           -0.2661    -3.4725    -1.0081 H       
  46 H46            0.1016    -1.8619    -1.6703 H       
  47 H47            1.4847     6.1787    -4.0621 H       
  48 H48            2.5291     6.4827    -2.5727 H       
  49 H49            3.5220     4.1591    -2.7946 H       
  50 H50            2.4775     3.8551    -4.2840 H       
  51 H51           -0.3128    -5.3832    -4.7789 H       
  52 H52            0.2612    -6.3671    -6.9619 H       
  53 H53            2.5787    -7.0536    -7.4319 H       
  54 H54            4.3225    -6.7554    -5.7191 H       
  55 H55            3.7495    -5.7672    -3.5378 H       
  56 H56            0.0209    -5.3434    -1.0314 H       
  57 H57           -0.6170    -5.8327    -2.6194 H       
  58 H58            0.6717    -6.7861    -1.8459 H       
@<TRIPOS>BOND
   1    1   19 1
   2    1    5 1
   3    1    8 2
   4    2    3 1
   5    2   10 1
   6    2   19 2
   7    3    4 2
   8    3   32 1
   9    4    5 1
  10    4   33 1
  11    5    6 1
  12    6    7 2
  13    6    9 1
  14    7    8 1
  15    9   11 1
  16    9   34 1
  17    9   35 1
  18   10   12 1
  19   10   36 1
  20   10   37 1
  21   11   21 1
  22   11   22 1
  23   11   38 1
  24   12   13 1
  25   12   17 1
  26   13   14 1
  27   13   39 1
  28   13   40 1
  29   14   15 1
  30   14   41 1
  31   14   42 1
  32   15   16 1
  33   15   18 1
  34   15   28 1
  35   16   17 1
  36   16   43 1
  37   16   44 1
  38   17   45 1
  39   17   46 1
  40   18   23 ar
  41   18   27 ar
  42   19   20 1
  43   20   29 1
  44   20   30 1
  45   20   31 1
  46   21   22 1
  47   21   47 1
  48   21   48 1
  49   22   49 1
  50   22   50 1
  51   23   24 ar
  52   23   51 1
  53   24   25 ar
  54   24   52 1
  55   25   26 ar
  56   25   53 1
  57   26   27 ar
  58   26   54 1
  59   27   55 1
  60   28   56 1
  61   28   57 1
  62   28   58 1

#	End of record

