#	Name: ASD03731568
#	Creating user name:	WinNT
#	Creation time:	15. 06. 2019 20:46

#	Modifying user name:	WinNT
#	Modification time:	15. 06. 2019 20:46

#	Program:	/corina/corina34_cracker 3.40 0067  02.08.2006

@<TRIPOS>MOLECULE
ASD03731568
  34   35    0    0    0
SMALL
NO_CHARGES


@<TRIPOS>ATOM
   1 C1             0.3747     1.0897     1.9860 C.2     
   2 C2             0.2908    -0.2854     1.4551 C.ar    
   3 C3             1.3728    -0.8348     0.7696 C.ar    
   4 C4             1.2883    -2.1323     0.2709 C.ar    
   5 C5             0.1134    -2.8775     0.4626 C.ar    
   6 C6            -0.9584    -2.3198     1.1473 C.ar    
   7 C7            -0.8725    -1.0388     1.6453 C.ar    
   8 O8             1.3875     1.7428     1.8252 O.2     
   9 N9            -0.6736     1.6230     2.6442 N.am    
  10 S10           -0.5796     3.1654     3.2397 S.o2    
  11 O11           -1.8321     3.3714     3.8784 O.2     
  12 O12            0.6324     3.1814     3.9813 O.2     
  13 C13           -0.4374     4.2121     1.7650 C.3     
  14 O14            0.0255    -4.1404    -0.0209 O.3     
  15 C15           -1.1656    -4.7850     0.0912 C.ar    
  16 C16           -2.1189    -4.6619    -0.9095 C.ar    
  17 C17           -3.3297    -5.3183    -0.7935 C.ar    
  18 C18           -3.5911    -6.0983     0.3209 C.ar    
  19 C19           -2.6416    -6.2213     1.3192 C.ar    
  20 C20           -1.4277    -5.5715     1.2036 C.ar    
  21 Cl21          -5.1124    -6.9221     0.4650 Cl      
  22 Cl22          -4.5235    -5.1647    -2.0445 Cl      
  23 C23            2.3950    -2.7043    -0.4351 C.1     
  24 N24            3.2730    -3.1582    -0.9952 N.1     
  25 H25            2.2732    -0.2562     0.6253 H       
  26 H26           -1.8610    -2.8945     1.2937 H       
  27 H27           -1.7079    -0.6127     2.1810 H       
  28 H28           -1.4831     1.1034     2.7691 H       
  29 H29           -1.3152     4.0722     1.1341 H       
  30 H30           -0.3694     5.2573     2.0665 H       
  31 H31            0.4580     3.9356     1.2082 H       
  32 H32           -1.9151    -4.0533    -1.7782 H       
  33 H33           -2.8475    -6.8294     2.1877 H       
  34 H34           -0.6849    -5.6722     1.9811 H       
@<TRIPOS>BOND
   1    1    2 1
   2    1    8 2
   3    1    9 am
   4    2    3 ar
   5    2    7 ar
   6    3    4 ar
   7    3   25 1
   8    4    5 ar
   9    4   23 1
  10    5    6 ar
  11    5   14 1
  12    6    7 ar
  13    6   26 1
  14    7   27 1
  15    9   10 am
  16    9   28 1
  17   10   11 2
  18   10   12 2
  19   10   13 1
  20   13   29 1
  21   13   30 1
  22   13   31 1
  23   14   15 1
  24   15   16 ar
  25   15   20 ar
  26   16   17 ar
  27   16   32 1
  28   17   18 ar
  29   17   22 1
  30   18   19 ar
  31   18   21 1
  32   19   20 ar
  33   19   33 1
  34   20   34 1
  35   23   24 3

#	End of record

