#	Name: ASD03092562
#	Creating user name:	WinNT
#	Creation time:	15. 06. 2019 20:32

#	Modifying user name:	WinNT
#	Modification time:	15. 06. 2019 20:32

#	Program:	/corina/corina34_cracker 3.40 0067  02.08.2006

@<TRIPOS>MOLECULE
ASD03092562
  37   39    0    0    0
SMALL
NO_CHARGES


@<TRIPOS>ATOM
   1 N1             1.2425    -0.4213    -0.0027 N.pl3   
   2 C2            -0.0085     0.1530    -0.0092 C.2     
   3 C3             0.1626     1.5210    -0.0266 C.2     
   4 C4             1.5398     1.7628    -0.0304 C.2     
   5 C5             2.1720     0.5649    -0.0157 C.2     
   6 C6            -1.2901    -0.5604    -0.0002 C.2     
   7 O7            -1.3113    -1.7743    -0.0829 O.2     
   8 N8            -2.4442     0.1285     0.0996 N.am    
   9 C9            -3.7267    -0.5720    -0.0037 C.3     
  10 N10           -7.9336     3.1640     0.2629 N.pl3   
  11 C11           -8.0586     3.4712    -1.0646 C.2     
  12 C12           -7.1633     2.7741    -1.7818 C.2     
  13 C13           -6.4029     1.9533    -0.8364 C.ar    
  14 C14           -5.3588     1.0357    -0.9690 C.ar    
  15 C15           -4.8532     0.4187     0.1402 C.ar    
  16 C16           -5.3691     0.6967     1.3988 C.ar    
  17 C17           -6.3992     1.5982     1.5523 C.ar    
  18 C18           -6.9294     2.2382     0.4366 C.ar    
  19 C19           -9.0541     4.4473    -1.6367 C.3     
  20 C20            1.5224    -1.8591     0.0208 C.3     
  21 H21           -0.6197     2.2655    -0.0356 H       
  22 H22            2.0151     2.7325    -0.0435 H       
  23 H23            3.2422     0.4195    -0.0144 H       
  24 H24           -2.4256     1.0882     0.2398 H       
  25 H25           -3.7958    -1.0621    -0.9748 H       
  26 H26           -3.7971    -1.3195     0.7864 H       
  27 H27           -8.4699     3.5448     0.9759 H       
  28 H28           -7.0291     2.8114    -2.8528 H       
  29 H29           -4.9531     0.8138    -1.9449 H       
  30 H30           -4.9588     0.2009     2.2661 H       
  31 H31           -6.7940     1.8074     2.5356 H       
  32 H32           -8.6123     5.4434    -1.6630 H       
  33 H33           -9.3223     4.1419    -2.6480 H       
  34 H34           -9.9477     4.4625    -1.0127 H       
  35 H35            1.4936    -2.2515    -0.9957 H       
  36 H36            2.5104    -2.0299     0.4484 H       
  37 H37            0.7715    -2.3656     0.6272 H       
@<TRIPOS>BOND
   1    1    2 1
   2    1    5 1
   3    1   20 1
   4    2    3 2
   5    2    6 1
   6    3    4 1
   7    3   21 1
   8    4    5 2
   9    4   22 1
  10    5   23 1
  11    6    7 2
  12    6    8 am
  13    8    9 1
  14    8   24 1
  15    9   15 1
  16    9   25 1
  17    9   26 1
  18   10   11 1
  19   10   18 1
  20   10   27 1
  21   11   12 2
  22   11   19 1
  23   12   13 1
  24   12   28 1
  25   13   14 ar
  26   13   18 ar
  27   14   15 ar
  28   14   29 1
  29   15   16 ar
  30   16   17 ar
  31   16   30 1
  32   17   18 ar
  33   17   31 1
  34   19   32 1
  35   19   33 1
  36   19   34 1
  37   20   35 1
  38   20   36 1
  39   20   37 1

#	End of record

