#	Name: ASD08150637
#	Creating user name:	WinNT
#	Creation time:	15. 06. 2019 21:16

#	Modifying user name:	WinNT
#	Modification time:	15. 06. 2019 21:16

#	Program:	/corina/corina34_cracker 3.40 0067  02.08.2006

@<TRIPOS>MOLECULE
ASD08150637
  63   68    0    0    0
SMALL
NO_CHARGES


@<TRIPOS>ATOM
   1 N1             0.9642    11.9359    -5.4385 N.am    
   2 C2             0.8253    11.7510    -6.7657 C.2     
   3 C3             1.6707    12.4107    -7.6806 C.2     
   4 C4             2.6422    13.2463    -7.2329 C.2     
   5 C5             2.7909    13.4434    -5.8374 C.ar    
   6 C6             3.7819    14.2995    -5.3202 C.ar    
   7 N7             3.9168    14.4795    -4.0323 N.ar    
   8 C8             3.1285    13.8673    -3.1356 C.ar    
   9 C9             2.1042    12.9885    -3.5661 C.ar    
  10 C10            1.9326    12.7713    -4.9535 C.ar    
  11 C11            1.2887    12.3546    -2.6236 C.ar    
  12 C12            1.4923    12.5941    -1.2743 C.ar    
  13 C13            2.5079    13.4650    -0.8559 C.ar    
  14 C14            3.3089    14.0892    -1.7605 C.ar    
  15 O15           -0.0432    11.0028    -7.1811 O.2     
  16 C16            0.6314    11.9262    -0.2679 C.ar    
  17 C17            0.1077    11.2727    -4.5498 C.ar    
  18 C18           -1.2093    11.6922    -4.4112 C.ar    
  19 C19           -2.0531    11.0389    -3.5362 C.ar    
  20 C20           -1.5853     9.9615    -2.7939 C.ar    
  21 C21           -0.2684     9.5422    -2.9327 C.ar    
  22 C22            0.5740    10.1926    -3.8120 C.ar    
  23 N23           -2.4399     9.2998    -1.9072 N.3     
  24 C24           -2.8533     7.9972    -2.4474 C.3     
  25 C25           -3.6100    10.1289    -1.5860 C.3     
  26 C26           -4.4777     9.4040    -0.5544 C.3     
  27 N27           -4.8911     8.1014    -1.0946 N.3     
  28 C28           -3.7211     7.2723    -1.4158 C.3     
  29 C29           -0.7550    12.0188    -0.3518 C.ar    
  30 N30           -1.5235    11.4267     0.5406 N.ar    
  31 C31           -1.0163    10.7270     1.5421 C.ar    
  32 C32            0.3588    10.5889     1.6921 C.ar    
  33 C33            1.2011    11.1891     0.7764 C.ar    
  34 C34            0.2392     8.3736    -2.1278 C.3     
  35 F35            1.5787     8.5891    -1.7865 F       
  36 F36           -0.5239     8.2436    -0.9624 F       
  37 F37            0.1339     7.2034    -2.8872 F       
  38 O38           -1.8494    10.1367     2.4353 O.3     
  39 C39           -3.2463    10.4021     2.2931 C.3     
  40 H40            1.5452    12.2504    -8.7413 H       
  41 H41            3.2928    13.7533    -7.9301 H       
  42 H42            4.4430    14.8167    -5.9998 H       
  43 H43            0.5058    11.6837    -2.9450 H       
  44 H44            2.6561    13.6430     0.1990 H       
  45 H45            4.0868    14.7568    -1.4205 H       
  46 H46           -1.5727    12.5299    -4.9879 H       
  47 H47           -3.0769    11.3652    -3.4282 H       
  48 H48            1.5967     9.8638    -3.9232 H       
  49 H49           -3.4259     8.1481    -3.3625 H       
  50 H50           -1.9700     7.3970    -2.6656 H       
  51 H51           -3.2783    11.0828    -1.1761 H       
  52 H52           -4.1912    10.3040    -2.4913 H       
  53 H53           -3.9051     9.2531     0.3607 H       
  54 H54           -5.3611    10.0042    -0.3362 H       
  55 H55           -5.5079     7.6238    -0.4546 H       
  56 H56           -4.0528     6.3183    -1.8257 H       
  57 H57           -3.1399     7.0971    -0.5105 H       
  58 H58           -1.2055    12.5817    -1.1560 H       
  59 H59            0.7639    10.0160     2.5132 H       
  60 H60            2.2733    11.0980     0.8684 H       
  61 H61           -3.5552    10.1850     1.2706 H       
  62 H62           -3.8079     9.7729     2.9837 H       
  63 H63           -3.4414    11.4510     2.5166 H       
@<TRIPOS>BOND
   1    1    2 am
   2    1   10 1
   3    1   17 1
   4    2    3 1
   5    2   15 2
   6    3    4 2
   7    3   40 1
   8    4    5 1
   9    4   41 1
  10    5    6 ar
  11    5   10 ar
  12    6    7 ar
  13    6   42 1
  14    7    8 ar
  15    8    9 ar
  16    8   14 ar
  17    9   10 ar
  18    9   11 ar
  19   11   12 ar
  20   11   43 1
  21   12   13 ar
  22   12   16 1
  23   13   14 ar
  24   13   44 1
  25   14   45 1
  26   16   29 ar
  27   16   33 ar
  28   17   18 ar
  29   17   22 ar
  30   18   19 ar
  31   18   46 1
  32   19   20 ar
  33   19   47 1
  34   20   21 ar
  35   20   23 1
  36   21   22 ar
  37   21   34 1
  38   22   48 1
  39   23   24 1
  40   23   25 1
  41   24   28 1
  42   24   49 1
  43   24   50 1
  44   25   26 1
  45   25   51 1
  46   25   52 1
  47   26   27 1
  48   26   53 1
  49   26   54 1
  50   27   28 1
  51   27   55 1
  52   28   56 1
  53   28   57 1
  54   29   30 ar
  55   29   58 1
  56   30   31 ar
  57   31   32 ar
  58   31   38 1
  59   32   33 ar
  60   32   59 1
  61   33   60 1
  62   34   35 1
  63   34   36 1
  64   34   37 1
  65   38   39 1
  66   39   61 1
  67   39   62 1
  68   39   63 1

#	End of record

