#	Name: ASD01882286
#	Creating user name:	WinNT
#	Creation time:	15. 06. 2019 19:44

#	Modifying user name:	WinNT
#	Modification time:	15. 06. 2019 19:44

#	Program:	/corina/corina34_cracker 3.40 0067  02.08.2006

@<TRIPOS>MOLECULE
ASD01882286
  29   30    0    0    0
SMALL
NO_CHARGES


@<TRIPOS>ATOM
   1 N1            -0.0165     1.3692     0.0096 N.pl3   
   2 O2             1.1412    -0.7243    -0.0127 O.3     
   3 C3             0.0021    -0.0041     0.0020 C.2     
   4 N4            -1.0753    -0.7270     0.0089 N.2     
   5 C5            -0.6823    -2.1496     0.0076 C.3     
   6 C6             0.8153    -2.0697     0.3922 C.3     
   7 C7             1.6390    -3.0940    -0.3909 C.3     
   8 O8             3.0178    -2.9666    -0.0377 O.3     
   9 C9             3.8788    -3.8829    -0.7168 C.3     
  10 C10            5.3010    -3.6608    -0.2705 C.ar    
  11 C11            5.8011    -4.3549     0.8153 C.ar    
  12 C12            7.1056    -4.1511     1.2247 C.ar    
  13 C13            7.9101    -3.2535     0.5480 C.ar    
  14 C14            7.4103    -2.5600    -0.5383 C.ar    
  15 C15            6.1071    -2.7670    -0.9504 C.ar    
  16 H16            0.8168     1.8655     0.0043 H       
  17 H17           -0.8631     1.8427     0.0162 H       
  18 H18           -1.2463    -2.7101     0.7532 H       
  19 H19           -0.8071    -2.5872    -0.9829 H       
  20 H20            0.9511    -2.1991     1.4659 H       
  21 H21            1.2935    -4.0992    -0.1495 H       
  22 H22            1.5198    -2.9156    -1.4596 H       
  23 H23            3.5797    -4.9045    -0.4822 H       
  24 H24            3.8060    -3.7209    -1.7922 H       
  25 H25            5.1725    -5.0562     1.3440 H       
  26 H26            7.4961    -4.6929     2.0735 H       
  27 H27            8.9291    -3.0938     0.8683 H       
  28 H28            8.0388    -1.8585    -1.0668 H       
  29 H29            5.7178    -2.2280    -1.8014 H       
@<TRIPOS>BOND
   1    1    3 1
   2    1   16 1
   3    1   17 1
   4    2    3 1
   5    2    6 1
   6    3    4 2
   7    4    5 1
   8    5    6 1
   9    5   18 1
  10    5   19 1
  11    6    7 1
  12    6   20 1
  13    7    8 1
  14    7   21 1
  15    7   22 1
  16    8    9 1
  17    9   10 1
  18    9   23 1
  19    9   24 1
  20   10   11 ar
  21   10   15 ar
  22   11   12 ar
  23   11   25 1
  24   12   13 ar
  25   12   26 1
  26   13   14 ar
  27   13   27 1
  28   14   15 ar
  29   14   28 1
  30   15   29 1

#	End of record

