#	Name: ASD03930075
#	Creating user name:	WinNT
#	Creation time:	15. 06. 2019 20:47

#	Modifying user name:	WinNT
#	Modification time:	15. 06. 2019 20:47

#	Program:	/corina/corina34_cracker 3.40 0067  02.08.2006

@<TRIPOS>MOLECULE
ASD03930075
  29   31    0    0    0
SMALL
NO_CHARGES


@<TRIPOS>ATOM
   1 C1             2.2356     1.4019    -0.5966 C.ar    
   2 C2             2.2743     0.0396    -0.5907 C.ar    
   3 C3             1.2569    -0.6868     0.0361 C.ar    
   4 C4             0.1949    -0.0100     0.6597 C.ar    
   5 C5             0.1593     1.3724     0.6511 C.ar    
   6 C6             1.1804     2.0842     0.0228 C.ar    
   7 N7             1.0208    -2.0137     0.2059 N.2     
   8 C8            -0.0851    -2.1618     0.8732 C.2     
   9 O9            -0.6158    -0.9652     1.1667 O.3     
  10 C10            1.1494     3.5601     0.0100 C.2     
  11 O11            2.1868     4.1905     0.0783 O.2     
  12 N12           -0.0288     4.2086    -0.0773 N.am    
  13 C13           -1.2886     3.4817    -0.2906 C.3     
  14 C14           -2.1172     4.2176    -1.3062 C.2     
  15 C15           -0.1081     5.6749     0.0431 C.3     
  16 C16           -0.6664     6.2252    -1.2720 C.3     
  17 C17           -1.8435     5.4111    -1.7265 C.2     
  18 H18            3.0258     1.9591    -1.0780 H       
  19 H19            3.0909    -0.4792    -1.0706 H       
  20 H20           -0.6545     1.8977     1.1288 H       
  21 H21           -0.5156    -3.1125     1.1510 H       
  22 H22           -1.0725     2.4776    -0.6554 H       
  23 H23           -1.8364     3.4186     0.6497 H       
  24 H24           -2.9892     3.7230    -1.7079 H       
  25 H25           -0.7713     5.9421     0.8659 H       
  26 H26            0.8861     6.0846     0.2219 H       
  27 H27           -0.9722     7.2615    -1.1283 H       
  28 H28            0.1081     6.1837    -2.0378 H       
  29 H29           -2.5142     5.8567    -2.4462 H       
@<TRIPOS>BOND
   1    1    2 ar
   2    1    6 ar
   3    1   18 1
   4    2    3 ar
   5    2   19 1
   6    3    4 ar
   7    3    7 1
   8    4    5 ar
   9    4    9 1
  10    5    6 ar
  11    5   20 1
  12    6   10 1
  13    7    8 2
  14    8    9 1
  15    8   21 1
  16   10   11 2
  17   10   12 am
  18   12   13 1
  19   12   15 1
  20   13   14 1
  21   13   22 1
  22   13   23 1
  23   14   17 2
  24   14   24 1
  25   15   16 1
  26   15   25 1
  27   15   26 1
  28   16   17 1
  29   16   27 1
  30   16   28 1
  31   17   29 1

#	End of record

