#	Name: ASD01410621
#	Creating user name:	WinNT
#	Creation time:	15. 06. 2019 19:18

#	Modifying user name:	WinNT
#	Modification time:	15. 06. 2019 19:18

#	Program:	/corina/corina34_cracker 3.40 0067  02.08.2006

@<TRIPOS>MOLECULE
ASD01410621
  68   71    0    0    0
SMALL
NO_CHARGES


@<TRIPOS>ATOM
   1 C1             0.0920    -0.2980     0.3102 C.ar    
   2 C2             0.5677    -0.4685     1.6028 C.ar    
   3 C3             1.9280    -0.5816     1.8128 C.ar    
   4 N4             2.7748    -0.5296     0.8025 N.ar    
   5 C5             2.3599    -0.3683    -0.4434 C.ar    
   6 C6             1.0058    -0.2475    -0.7282 C.ar    
   7 O7             3.2656    -0.3203    -1.4523 O.3     
   8 C8             4.5856    -0.3356    -1.1263 C.ar    
   9 C9             5.1502    -1.4806    -0.5771 C.ar    
  10 C10            6.4890    -1.5068    -0.2427 C.ar    
  11 C11            7.2818    -0.3871    -0.4527 C.ar    
  12 C12            6.7178     0.7721    -1.0069 C.ar    
  13 C13            5.3631     0.7865    -1.3477 C.ar    
  14 N14            8.6338    -0.4140    -0.1139 N.am    
  15 C15            9.5480    -0.8123    -1.0205 C.2     
  16 C16            9.0609    -0.0092     1.2278 C.3     
  17 O17            9.1876    -1.2748    -2.0822 O.2     
  18 C18           11.0181    -0.6830    -0.7151 C.3     
  19 C19           11.7981    -0.5221    -2.0215 C.3     
  20 C20           13.2906    -0.3908    -1.7114 C.3     
  21 C21           13.7721    -1.6461    -0.9812 C.3     
  22 C22           12.9921    -1.8070     0.3251 C.3     
  23 C23           11.4996    -1.9383     0.0151 C.3     
  24 C24           15.2646    -1.5148    -0.6712 C.3     
  25 C25            9.1852     1.4916     1.2839 C.ar    
  26 C26            8.0719     2.2705     1.5629 C.ar    
  27 C27            8.1898     3.6521     1.6143 C.ar    
  28 C28            9.4149     4.2484     1.3876 C.ar    
  29 C29           10.5232     3.4697     1.1092 C.ar    
  30 C30           10.4096     2.0927     1.0630 C.ar    
  31 O31            6.8675     1.6814     1.7851 O.3     
  32 C32            5.7592     2.5468     2.0398 C.3     
  33 C33            7.5515     1.9663    -1.2333 C.2     
  34 O34            8.7305     1.9488    -0.9398 O.2     
  35 O35            7.0062     3.0777    -1.7657 O.3     
  36 C36            0.5379    -0.0638    -2.1489 C.3     
  37 F37           -0.8577     0.0316    -2.1715 F       
  38 F38            1.0939     1.1070    -2.6754 F       
  39 F39            0.9429    -1.1595    -2.9187 F       
  40 H40           -0.9673    -0.2114     0.1184 H       
  41 H41           -0.1185    -0.5118     2.4357 H       
  42 H42            2.3033    -0.7140     2.8168 H       
  43 H43            4.5379    -2.3546    -0.4108 H       
  44 H44            6.9205    -2.4003     0.1837 H       
  45 H45            4.9219     1.6750    -1.7746 H       
  46 H46            8.3235    -0.3402     1.9591 H       
  47 H47           10.0260    -0.4624     1.4541 H       
  48 H48           11.1826     0.1902    -0.0838 H       
  49 H49           11.6336    -1.3953    -2.6528 H       
  50 H50           11.4550     0.3722    -2.5417 H       
  51 H51           13.8463    -0.2762    -2.6421 H       
  52 H52           13.4551     0.4824    -1.0801 H       
  53 H53           13.6076    -2.5193    -1.6126 H       
  54 H54           13.3352    -2.7013     0.8453 H       
  55 H55           13.1566    -0.9339     0.9565 H       
  56 H56           10.9439    -2.0530     0.9457 H       
  57 H57           11.3351    -2.8115    -0.6163 H       
  58 H58           15.4291    -0.6416    -0.0399 H       
  59 H59           15.6077    -2.4091    -0.1510 H       
  60 H60           15.8203    -1.4002    -1.6019 H       
  61 H61            7.3243     4.2607     1.8310 H       
  62 H62            9.5072     5.3237     1.4275 H       
  63 H63           11.4801     3.9379     0.9315 H       
  64 H64           11.2766     1.4867     0.8453 H       
  65 H65            5.9950     3.2020     2.8783 H       
  66 H66            5.5573     3.1489     1.1539 H       
  67 H67            4.8800     1.9496     2.2814 H       
  68 H68            7.5926     3.8356    -1.8954 H       
@<TRIPOS>BOND
   1    1    2 ar
   2    1    6 ar
   3    1   40 1
   4    2    3 ar
   5    2   41 1
   6    3    4 ar
   7    3   42 1
   8    4    5 ar
   9    5    6 ar
  10    5    7 1
  11    6   36 1
  12    7    8 1
  13    8    9 ar
  14    8   13 ar
  15    9   10 ar
  16    9   43 1
  17   10   11 ar
  18   10   44 1
  19   11   12 ar
  20   11   14 1
  21   12   13 ar
  22   12   33 1
  23   13   45 1
  24   14   15 am
  25   14   16 1
  26   15   17 2
  27   15   18 1
  28   16   25 1
  29   16   46 1
  30   16   47 1
  31   18   19 1
  32   18   23 1
  33   18   48 1
  34   19   20 1
  35   19   49 1
  36   19   50 1
  37   20   21 1
  38   20   51 1
  39   20   52 1
  40   21   22 1
  41   21   24 1
  42   21   53 1
  43   22   23 1
  44   22   54 1
  45   22   55 1
  46   23   56 1
  47   23   57 1
  48   24   58 1
  49   24   59 1
  50   24   60 1
  51   25   26 ar
  52   25   30 ar
  53   26   27 ar
  54   26   31 1
  55   27   28 ar
  56   27   61 1
  57   28   29 ar
  58   28   62 1
  59   29   30 ar
  60   29   63 1
  61   30   64 1
  62   31   32 1
  63   32   65 1
  64   32   66 1
  65   32   67 1
  66   33   34 2
  67   33   35 1
  68   35   68 1
  69   36   37 1
  70   36   38 1
  71   36   39 1

#	End of record

