#	Name: ASD01028158
#	Creating user name:	WinNT
#	Creation time:	15. 06. 2019 18:56

#	Modifying user name:	WinNT
#	Modification time:	15. 06. 2019 18:56

#	Program:	/corina/corina34_cracker 3.40 0067  02.08.2006

@<TRIPOS>MOLECULE
ASD01028158
  48   50    0    0    0
SMALL
NO_CHARGES


@<TRIPOS>ATOM
   1 C1            -0.1662     1.0961    -0.3710 C.ar    
   2 C2             0.1317    -0.2640    -0.1776 C.ar    
   3 C3             1.4669    -0.6427     0.0125 C.ar    
   4 C4             2.4370     0.3411     0.0017 C.ar    
   5 C5             2.0664     1.6636    -0.1952 C.ar    
   6 N6             0.8013     1.9998    -0.3726 N.ar    
   7 C7            -0.9411    -1.2730    -0.1744 C.2     
   8 O8            -2.1048    -0.9236    -0.2288 O.2     
   9 N9            -0.6333    -2.5837    -0.1113 N.am    
  10 N10           -1.4765     1.4917    -0.5662 N.pl3   
  11 C11           -1.8073     2.9166    -0.6459 C.3     
  12 C12           -5.5104     3.3251    -0.0179 C.ar    
  13 C13           -4.1564     3.1792     0.2176 C.ar    
  14 C14           -3.2904     3.0768    -0.8603 C.ar    
  15 C15           -3.8212     3.1257    -2.1403 C.ar    
  16 C16           -5.1862     3.2738    -2.2980 C.ar    
  17 N17           -5.9802     3.3677    -1.2493 N.ar    
  18 C18           -1.6510    -3.5363     0.0014 C.ar    
  19 C19           -1.5067    -4.7827    -0.5943 C.ar    
  20 C20           -2.5136    -5.7212    -0.4812 C.ar    
  21 C21           -3.6645    -5.4210     0.2241 C.ar    
  22 C22           -3.8116    -4.1809     0.8179 C.ar    
  23 C23           -2.8059    -3.2401     0.7139 C.ar    
  24 C24           -4.7612    -6.4475     0.3454 C.3     
  25 C25           -4.9969    -6.7699     1.8224 C.3     
  26 C26           -6.0488    -5.8931    -0.2674 C.3     
  27 F27            3.0160     2.6245    -0.2051 F       
  28 H28            1.7316    -1.6787     0.1643 H       
  29 H29            3.4757     0.0827     0.1456 H       
  30 H30            0.2940    -2.8662    -0.1439 H       
  31 H31           -2.1767     0.8258    -0.6505 H       
  32 H32           -1.5193     3.4090     0.2830 H       
  33 H33           -1.2689     3.3687    -1.4788 H       
  34 H34           -6.1921     3.4010     0.8164 H       
  35 H35           -3.7777     3.1453     1.2284 H       
  36 H36           -3.1761     3.0494    -3.0031 H       
  37 H37           -5.6075     3.3128    -3.2917 H       
  38 H38           -0.6082    -5.0176    -1.1455 H       
  39 H39           -2.4021    -6.6904    -0.9444 H       
  40 H40           -4.7119    -3.9494     1.3678 H       
  41 H41           -2.9193    -2.2734     1.1819 H       
  42 H42           -4.4691    -7.3553    -0.1825 H       
  43 H43           -5.2889    -5.8621     2.3503 H       
  44 H44           -5.7901    -7.5123     1.9101 H       
  45 H45           -4.0796    -7.1649     2.2590 H       
  46 H46           -5.8809    -5.6634    -1.3196 H       
  47 H47           -6.8420    -6.6355    -0.1796 H       
  48 H48           -6.3409    -4.9853     0.2606 H       
@<TRIPOS>BOND
   1    1    2 ar
   2    1    6 ar
   3    1   10 1
   4    2    3 ar
   5    2    7 1
   6    3    4 ar
   7    3   28 1
   8    4    5 ar
   9    4   29 1
  10    5    6 ar
  11    5   27 1
  12    7    8 2
  13    7    9 am
  14    9   18 1
  15    9   30 1
  16   10   11 1
  17   10   31 1
  18   11   14 1
  19   11   32 1
  20   11   33 1
  21   12   13 ar
  22   12   17 ar
  23   12   34 1
  24   13   14 ar
  25   13   35 1
  26   14   15 ar
  27   15   16 ar
  28   15   36 1
  29   16   17 ar
  30   16   37 1
  31   18   19 ar
  32   18   23 ar
  33   19   20 ar
  34   19   38 1
  35   20   21 ar
  36   20   39 1
  37   21   22 ar
  38   21   24 1
  39   22   23 ar
  40   22   40 1
  41   23   41 1
  42   24   25 1
  43   24   26 1
  44   24   42 1
  45   25   43 1
  46   25   44 1
  47   25   45 1
  48   26   46 1
  49   26   47 1
  50   26   48 1

#	End of record

