#	Name: ASD04560183
#	Creating user name:	WinNT
#	Creation time:	15. 06. 2019 20:49

#	Modifying user name:	WinNT
#	Modification time:	15. 06. 2019 20:49

#	Program:	/corina/corina34_cracker 3.40 0067  02.08.2006

@<TRIPOS>MOLECULE
ASD04560183
  47   49    0    0    0
SMALL
NO_CHARGES


@<TRIPOS>ATOM
   1 C1             0.0949     1.0791    -0.5505 C.ar    
   2 C2             0.1948    -0.2852    -0.5299 C.ar    
   3 C3             1.4513    -0.8775    -0.4043 C.ar    
   4 N4             2.5473    -0.1364    -0.3045 N.ar    
   5 C5             2.4952     1.1790    -0.3202 C.ar    
   6 C6             1.2710     1.8386    -0.4436 C.ar    
   7 C7             1.2139     3.3121    -0.4610 C.2     
   8 O8             0.1428     3.8779    -0.5689 O.2     
   9 N9             2.3488     4.0317    -0.3573 N.am    
  10 C10            2.3087     5.4254    -0.4894 C.ar    
  11 C11            3.1664     6.2192     0.2606 C.ar    
  12 C12            1.3765     7.3880    -1.5046 C.ar    
  13 C13            1.4151     6.0138    -1.3746 C.ar    
  14 S14            1.5849    -2.6342    -0.3772 S.3     
  15 C15            3.1267     7.5932     0.1294 C.ar    
  16 C16            2.2298     8.1806    -0.7509 C.ar    
  17 C17            3.3779    -2.8104    -0.2035 C.3     
  18 C18            3.7367    -4.2733    -0.1572 C.ar    
  19 C19            3.9233    -4.9842    -1.3413 C.ar    
  20 C20            4.2556    -6.3372    -1.2911 C.ar    
  21 C21            4.3979    -6.9650    -0.0709 C.ar    
  22 C22            4.2110    -6.2544     1.1018 C.ar    
  23 C23            3.8867    -4.9101     1.0578 C.ar    
  24 B24            3.7594    -4.2641    -2.7268 Du      
  25 O25            4.4229    -4.7731    -3.8744 O.3     
  26 O26            2.9477    -3.1038    -2.8322 O.3     
  27 O27            2.1912     9.5337    -0.8795 O.3     
  28 C28            1.2433    10.0707    -1.8042 C.3     
  29 F29           -0.0479     9.6926    -1.4208 F       
  30 F30            1.3377    11.4665    -1.8110 F       
  31 F31            1.5120     9.5789    -3.0860 F       
  32 H32           -0.8663     1.5610    -0.6512 H       
  33 H33           -0.6911    -0.8978    -0.6097 H       
  34 H34            3.4066     1.7523    -0.2369 H       
  35 H35            3.1933     3.5844    -0.1912 H       
  36 H36            3.8642     5.7620     0.9465 H       
  37 H37            0.6819     7.8458    -2.1933 H       
  38 H38            0.7508     5.3969    -1.9614 H       
  39 H39            3.7937     8.2107     0.7127 H       
  40 H40            3.8731    -2.3416    -1.0538 H       
  41 H41            3.7028    -2.3272     0.7179 H       
  42 H42            4.4010    -6.8929    -2.2057 H       
  43 H43            4.6553    -8.0131    -0.0308 H       
  44 H44            4.3231    -6.7499     2.0548 H       
  45 H45            3.7423    -4.3602     1.9761 H       
  46 H46            4.2618    -4.2634    -4.6802 H       
  47 H47            2.9079    -2.7313    -3.7237 H       
@<TRIPOS>BOND
   1    1    2 ar
   2    1    6 ar
   3    1   32 1
   4    2    3 ar
   5    2   33 1
   6    3    4 ar
   7    3   14 1
   8    4    5 ar
   9    5    6 ar
  10    5   34 1
  11    6    7 1
  12    7    8 2
  13    7    9 am
  14    9   10 1
  15    9   35 1
  16   10   11 ar
  17   10   13 ar
  18   11   15 ar
  19   11   36 1
  20   12   13 ar
  21   12   16 ar
  22   12   37 1
  23   13   38 1
  24   14   17 1
  25   15   16 ar
  26   15   39 1
  27   16   27 1
  28   17   18 1
  29   17   40 1
  30   17   41 1
  31   18   19 ar
  32   18   23 ar
  33   19   20 ar
  34   19   24 1
  35   20   21 ar
  36   20   42 1
  37   21   22 ar
  38   21   43 1
  39   22   23 ar
  40   22   44 1
  41   23   45 1
  42   24   25 1
  43   24   26 1
  44   25   46 1
  45   26   47 1
  46   27   28 1
  47   28   29 1
  48   28   30 1
  49   28   31 1

#	End of record

