#	Name: ASD01870469
#	Creating user name:	WinNT
#	Creation time:	15. 06. 2019 19:39

#	Modifying user name:	WinNT
#	Modification time:	15. 06. 2019 19:39

#	Program:	/corina/corina34_cracker 3.40 0067  02.08.2006

@<TRIPOS>MOLECULE
ASD01870469
  41   44    0    0    0
SMALL
NO_CHARGES


@<TRIPOS>ATOM
   1 C1            -0.0304     1.3966    -0.2319 C.ar    
   2 C2            -0.0276     0.0163    -0.1044 C.ar    
   3 C3             1.1514    -0.6623     0.1406 C.ar    
   4 C4             2.3474     0.0280     0.2624 C.ar    
   5 C5             2.3598     1.4078     0.1373 C.ar    
   6 C6             1.1574     2.0999    -0.1126 C.ar    
   7 C7             3.4144     2.4413     0.2061 C.2     
   8 N8             2.8482     3.6454     0.0078 N.am    
   9 C9             1.5222     3.5304    -0.1873 C.2     
  10 O10            0.7534     4.4484    -0.3903 O.2     
  11 O11            4.5945     2.2375     0.4084 O.2     
  12 C12            3.5488     4.8615     0.0053 C.ar    
  13 C13            4.0791     5.3546    -1.1791 C.ar    
  14 C14            4.7682     6.5507    -1.1820 C.ar    
  15 C15            4.9313     7.2616     0.0002 C.ar    
  16 C16            4.4007     6.7692     1.1852 C.ar    
  17 C17            3.7065     5.5746     1.1871 C.ar    
  18 Cl18           3.0371     4.9617     2.6669 Cl      
  19 N19            5.6309     8.4739    -0.0030 N.am    
  20 C20            6.4029     8.8092     1.0497 C.2     
  21 C21            7.2154    10.0292     1.0040 C.2     
  22 O22            6.4256     8.0996     2.0382 O.2     
  23 C23            8.0468    10.4925     2.0016 C.2     
  24 C24            8.6225    11.6797     1.5384 C.2     
  25 C25            8.1435    11.9157     0.2935 C.2     
  26 N26            7.2916    10.9172    -0.0451 N.pl3   
  27 C27            8.2894     9.8421     3.3392 C.3     
  28 H28           -0.9539     1.9212    -0.4278 H       
  29 H29           -0.9530    -0.5327    -0.1969 H       
  30 H30            1.1407    -1.7378     0.2383 H       
  31 H31            3.2655    -0.5075     0.4542 H       
  32 H32            3.9528     4.8020    -2.0984 H       
  33 H33            5.1809     6.9337    -2.1037 H       
  34 H34            4.5277     7.3215     2.1046 H       
  35 H35            5.5600     9.0728    -0.7628 H       
  36 H36            9.3243    12.2988     2.0775 H       
  37 H37            8.4015    12.7595    -0.3293 H       
  38 H38            6.8135    10.8422    -0.8857 H       
  39 H39            9.1280     9.1503     3.2601 H       
  40 H40            8.5192    10.6084     4.0795 H       
  41 H41            7.3965     9.2972     3.6455 H       
@<TRIPOS>BOND
   1    1    2 ar
   2    1    6 ar
   3    1   28 1
   4    2    3 ar
   5    2   29 1
   6    3    4 ar
   7    3   30 1
   8    4    5 ar
   9    4   31 1
  10    5    7 1
  11    5    6 ar
  12    6    9 1
  13    7    8 am
  14    7   11 2
  15    8    9 am
  16    8   12 1
  17    9   10 2
  18   12   13 ar
  19   12   17 ar
  20   13   14 ar
  21   13   32 1
  22   14   15 ar
  23   14   33 1
  24   15   16 ar
  25   15   19 1
  26   16   17 ar
  27   16   34 1
  28   17   18 1
  29   19   20 am
  30   19   35 1
  31   20   21 1
  32   20   22 2
  33   21   23 2
  34   21   26 1
  35   23   24 1
  36   23   27 1
  37   24   25 2
  38   24   36 1
  39   25   26 1
  40   25   37 1
  41   26   38 1
  42   27   39 1
  43   27   40 1
  44   27   41 1

#	End of record

