#	Name: ASD00070076
#	Creating user name:	WinNT
#	Creation time:	15. 06. 2019 18:30

#	Modifying user name:	WinNT
#	Modification time:	15. 06. 2019 18:30

#	Program:	/corina/corina34_cracker 3.40 0067  02.08.2006

@<TRIPOS>MOLECULE
ASD00070076
  71   75    0    0    0
SMALL
NO_CHARGES


@<TRIPOS>ATOM
   1 C1            -0.0180     1.4742     0.0101 C.2     
   2 C2             0.0021    -0.0041     0.0020 C.ar    
   3 C3             1.2184    -0.6885    -0.0133 C.ar    
   4 C4             1.2301    -2.0680    -0.0203 C.ar    
   5 C5             0.0396    -2.7730    -0.0127 C.ar    
   6 C6            -1.1695    -2.1007     0.0024 C.ar    
   7 C7            -1.1952    -0.7214     0.0154 C.ar    
   8 O8             1.0263     2.0963     0.0035 O.2     
   9 N9            -1.1942     2.1322     0.0193 N.am    
  10 C10            0.0601    -4.2798    -0.0215 C.3     
  11 F11            0.0792    -4.7536     1.2947 F       
  12 F12           -1.0822    -4.7579    -0.6726 F       
  13 F13            1.2021    -4.7268    -0.6947 F       
  14 C14           -1.2141     3.5970     0.0274 C.3     
  15 C15           -2.5311     4.0925    -0.5733 C.3     
  16 C16           -2.5518     5.6223    -0.5649 C.3     
  17 C17           -2.4262     6.1262     0.8743 C.3     
  18 C18           -1.1092     5.6307     1.4750 C.3     
  19 C19           -1.0885     4.1009     1.4665 C.3     
  20 C20           -2.4470     7.6560     0.8827 C.3     
  21 C21           -2.4471     8.1581     2.3279 C.3     
  22 N22           -2.4670     9.6270     2.3360 N.3     
  23 C23           -2.7058    10.1426     3.6901 C.3     
  24 C24           -2.8648    11.6638     3.6374 C.3     
  25 C25           -1.5940    12.2850     3.0513 C.3     
  26 C26           -1.3415    11.6953     1.6609 C.3     
  27 C27           -1.2266    10.1732     1.7709 C.3     
  28 O28           -0.1296    16.6453     4.2827 O.3     
  29 C29            0.9563    15.7460     4.5636 C.3     
  30 C30            0.2719    14.3591     4.5230 C.3     
  31 C31           -0.9147    14.6221     3.6163 C.ar    
  32 C32           -1.0646    16.0007     3.5321 C.ar    
  33 C33           -1.7677    13.7779     2.9412 C.ar    
  34 C34           -2.7843    14.3008     2.1613 C.ar    
  35 C35           -2.9388    15.6711     2.0635 C.ar    
  36 C36           -2.0871    16.5188     2.7415 C.ar    
  37 H37            2.1484    -0.1393    -0.0199 H       
  38 H38            2.1706    -2.5988    -0.0321 H       
  39 H39           -2.0953    -2.6569     0.0083 H       
  40 H40           -2.1396    -0.1978     0.0318 H       
  41 H41           -2.0276     1.6358     0.0206 H       
  42 H42           -0.3801     3.9750    -0.5640 H       
  43 H43           -2.6206     3.7336    -1.5986 H       
  44 H44           -3.3651     3.7146     0.0180 H       
  45 H45           -1.7178     6.0003    -1.1563 H       
  46 H46           -3.4901     5.9753    -0.9929 H       
  47 H47           -3.2602     5.7483     1.4656 H       
  48 H48           -0.2752     6.0086     0.8836 H       
  49 H49           -1.0197     5.9896     2.5003 H       
  50 H50           -1.9225     3.7229     2.0579 H       
  51 H51           -0.1502     3.7479     1.8945 H       
  52 H52           -1.5645     8.0342     0.3667 H       
  53 H53           -3.3442     8.0100     0.3750 H       
  54 H54           -3.3296     7.7799     2.8439 H       
  55 H55           -1.5498     7.8041     2.8356 H       
  56 H56           -3.6146     9.6962     4.0937 H       
  57 H57           -1.8610     9.8877     4.3300 H       
  58 H58           -3.7180    11.9189     3.0088 H       
  59 H59           -3.0265    12.0478     4.6446 H       
  60 H60           -0.7471    12.0628     3.7005 H       
  61 H61           -2.1706    11.9509     1.0012 H       
  62 H62           -0.4148    12.1019     1.2560 H       
  63 H63           -0.3887     9.9182     2.4198 H       
  64 H64           -1.0610     9.7490     0.7806 H       
  65 H65            1.7266    15.8191     3.7959 H       
  66 H66            1.3740    15.9417     5.5512 H       
  67 H67            0.9348    13.6101     4.0898 H       
  68 H68           -0.0569    14.0576     5.5175 H       
  69 H69           -3.4544    13.6407     1.6306 H       
  70 H70           -3.7300    16.0802     1.4528 H       
  71 H71           -2.2149    17.5881     2.6600 H       
@<TRIPOS>BOND
   1    1    2 1
   2    1    8 2
   3    1    9 am
   4    2    3 ar
   5    2    7 ar
   6    3    4 ar
   7    3   37 1
   8    4    5 ar
   9    4   38 1
  10    5    6 ar
  11    5   10 1
  12    6    7 ar
  13    6   39 1
  14    7   40 1
  15    9   14 1
  16    9   41 1
  17   10   11 1
  18   10   12 1
  19   10   13 1
  20   14   15 1
  21   14   19 1
  22   14   42 1
  23   15   16 1
  24   15   43 1
  25   15   44 1
  26   16   17 1
  27   16   45 1
  28   16   46 1
  29   17   18 1
  30   17   20 1
  31   17   47 1
  32   18   19 1
  33   18   48 1
  34   18   49 1
  35   19   50 1
  36   19   51 1
  37   20   21 1
  38   20   52 1
  39   20   53 1
  40   21   22 1
  41   21   54 1
  42   21   55 1
  43   22   23 1
  44   22   27 1
  45   23   24 1
  46   23   56 1
  47   23   57 1
  48   24   25 1
  49   24   58 1
  50   24   59 1
  51   25   26 1
  52   25   33 1
  53   25   60 1
  54   26   27 1
  55   26   61 1
  56   26   62 1
  57   27   63 1
  58   27   64 1
  59   28   29 1
  60   28   32 1
  61   29   30 1
  62   29   65 1
  63   29   66 1
  64   30   31 1
  65   30   67 1
  66   30   68 1
  67   31   32 ar
  68   31   33 ar
  69   32   36 ar
  70   33   34 ar
  71   34   35 ar
  72   34   69 1
  73   35   36 ar
  74   35   70 1
  75   36   71 1

#	End of record

