#	Name: ASD01941037
#	Creating user name:	WinNT
#	Creation time:	15. 06. 2019 20:13

#	Modifying user name:	WinNT
#	Modification time:	15. 06. 2019 20:13

#	Program:	/corina/corina34_cracker 3.40 0067  02.08.2006

@<TRIPOS>MOLECULE
ASD01941037
  61   65    0    0    0
SMALL
NO_CHARGES


@<TRIPOS>ATOM
   1 N1             1.0327     1.3506     0.7086 N.am    
   2 C2             0.7827     0.0362     0.6065 C.2     
   3 N3            -0.4490    -0.4590     0.3912 N.am    
   4 C4            -1.5318     0.3887     0.2633 C.2     
   5 C5            -1.3190     1.7897     0.3638 C.2     
   6 C6             0.0450     2.2665     0.6048 C.2     
   7 C7            -2.8103    -0.0793     0.0411 C.2     
   8 C8            -3.8612     0.8358    -0.0791 C.2     
   9 N9            -3.6452     2.1593     0.0177 N.am    
  10 C10           -2.3974     2.6597     0.2380 C.2     
  11 C11           -0.6352    -1.8459     0.2956 C.ar    
  12 C12           -0.3112    -2.5103    -0.8798 C.ar    
  13 C13           -0.4943    -3.8753    -0.9743 C.ar    
  14 C14           -1.0027    -4.5842     0.1067 C.ar    
  15 C15           -1.3266    -3.9193     1.2824 C.ar    
  16 C16           -1.1380    -2.5551     1.3782 C.ar    
  17 O17           -4.9940     0.4257    -0.2757 O.2     
  18 N18           -2.2055     4.0104     0.3328 N.pl3   
  19 C19           -1.8388     4.7464    -0.7999 C.ar    
  20 C20           -1.7735     4.1274    -2.0404 C.ar    
  21 C21           -1.4112     4.8563    -3.1570 C.ar    
  22 C22           -1.1131     6.2017    -3.0405 C.ar    
  23 C23           -1.1769     6.8232    -1.8060 C.ar    
  24 C24           -1.5446     6.1013    -0.6858 C.ar    
  25 O25            1.7108    -0.7415     0.7129 O.2     
  26 C26            2.4063     1.8023     0.9438 C.3     
  27 O27            0.2835     3.4561     0.6994 O.2     
  28 C28            3.4417     1.5114    -0.1444 C.3     
  29 C29            2.9358     2.9396     0.0681 C.3     
  30 C30           -4.7751     3.0822    -0.1154 C.3     
  31 I31           -0.5632     7.3010    -4.7370 I       
  32 C32           -3.0716    -1.5592    -0.0713 C.3     
  33 F33           -1.6069     6.7079     0.5198 F       
  34 N34           -1.1887    -5.9670     0.0111 N.am    
  35 S35            0.1172    -6.9839     0.0661 S.o2    
  36 C36            0.7766    -6.7834     1.7441 C.3     
  37 O37           -0.4410    -8.2803    -0.0987 O.2     
  38 O38            1.0195    -6.4476    -0.8917 O.2     
  39 H39            0.0837    -1.9590    -1.7204 H       
  40 H40           -0.2427    -4.3920    -1.8887 H       
  41 H41           -1.7219    -4.4702     2.1230 H       
  42 H42           -1.3896    -2.0381     2.2925 H       
  43 H43           -2.3235     4.4583     1.1850 H       
  44 H44           -2.0053     3.0766    -2.1329 H       
  45 H45           -1.3604     4.3744    -4.1222 H       
  46 H46           -0.9435     7.8741    -1.7182 H       
  47 H47            2.7420     1.7666     1.9803 H       
  48 H48            4.4586     1.2848     0.1761 H       
  49 H49            3.1009     0.9841    -1.0354 H       
  50 H50            2.2621     3.3519    -0.6831 H       
  51 H51            3.6198     3.6526     0.5283 H       
  52 H52           -5.7014     2.5133    -0.1956 H       
  53 H53           -4.8209     3.7293     0.7605 H       
  54 H54           -4.6438     3.6906    -1.0102 H       
  55 H55           -3.1810    -1.9856     0.9259 H       
  56 H56           -3.9869    -1.7245    -0.6396 H       
  57 H57           -2.2357    -2.0380    -0.5815 H       
  58 H58           -2.0826    -6.3305    -0.0874 H       
  59 H59           -0.0131    -6.9760     2.4702 H       
  60 H60            1.5934    -7.4881     1.9000 H       
  61 H61            1.1458    -5.7656     1.8701 H       
@<TRIPOS>BOND
   1    1    2 am
   2    1   26 1
   3    1    6 am
   4    2    3 am
   5    2   25 2
   6    3    4 1
   7    3   11 1
   8    4    5 1
   9    4    7 2
  10    5    6 1
  11    5   10 2
  12    6   27 2
  13    7    8 1
  14    7   32 1
  15    8    9 am
  16    8   17 2
  17    9   10 1
  18    9   30 1
  19   10   18 1
  20   11   12 ar
  21   11   16 ar
  22   12   13 ar
  23   12   39 1
  24   13   14 ar
  25   13   40 1
  26   14   15 ar
  27   14   34 1
  28   15   16 ar
  29   15   41 1
  30   16   42 1
  31   18   19 1
  32   18   43 1
  33   19   20 ar
  34   19   24 ar
  35   20   21 ar
  36   20   44 1
  37   21   22 ar
  38   21   45 1
  39   22   23 ar
  40   22   31 1
  41   23   24 ar
  42   23   46 1
  43   24   33 1
  44   26   28 1
  45   26   29 1
  46   26   47 1
  47   28   29 1
  48   28   48 1
  49   28   49 1
  50   29   50 1
  51   29   51 1
  52   30   52 1
  53   30   53 1
  54   30   54 1
  55   32   55 1
  56   32   56 1
  57   32   57 1
  58   34   35 am
  59   34   58 1
  60   35   36 1
  61   35   37 2
  62   35   38 2
  63   36   59 1
  64   36   60 1
  65   36   61 1

#	End of record

