#	Name: ASD03950070
#	Creating user name:	WinNT
#	Creation time:	15. 06. 2019 20:48

#	Modifying user name:	WinNT
#	Modification time:	15. 06. 2019 20:48

#	Program:	/corina/corina34_cracker 3.40 0067  02.08.2006

@<TRIPOS>MOLECULE
ASD03950070
  69   72    0    0    0
SMALL
NO_CHARGES


@<TRIPOS>ATOM
   1 N1            -0.0169     1.3942     0.0097 N.pl3   
   2 N2             0.0021    -0.0041     0.0020 N.2     
   3 C3             1.2311    -0.4341    -0.0120 C.2     
   4 C4             2.1093     0.7334    -0.0141 C.ar    
   5 C5             3.4967     0.8990    -0.0268 C.ar    
   6 C6             4.0411     2.1756    -0.0256 C.ar    
   7 C7             3.2112     3.2979    -0.0112 C.ar    
   8 C8             1.8299     3.1501     0.0020 C.ar    
   9 C9             1.2663     1.8606    -0.0000 C.ar    
  10 C10            0.9576     4.3398     0.0177 C.2     
  11 O11           -0.2510     4.2074     0.0293 O.2     
  12 N12            1.5004     5.5734     0.0192 N.am    
  13 C13            5.5152     2.3486    -0.0391 C.ar    
  14 C14            6.0691     3.6270    -0.0380 C.ar    
  15 C15            7.4405     3.7821    -0.0501 C.ar    
  16 C16            8.2646     2.6713    -0.0639 C.ar    
  17 C17            7.7200     1.3999    -0.0656 C.ar    
  18 C18            6.3500     1.2332    -0.0472 C.ar    
  19 N19            1.2107    -4.6672    -0.0344 N.am    
  20 C20            1.6135    -4.0361     1.2298 C.3     
  21 C21            1.1379    -2.5799     1.2275 C.3     
  22 C22            1.6687    -1.8761    -0.0235 C.3     
  23 C23            1.1162    -2.5666    -1.2725 C.3     
  24 C24            1.5916    -4.0227    -1.2986 C.3     
  25 S25            0.3495    -6.0817    -0.0344 S.o2    
  26 O26            0.6708    -6.6876    -1.2790 O.2     
  27 O27            0.6975    -6.7039     1.1948 O.2     
  28 C28           -1.3862    -5.5549    -0.0123 C.3     
  29 C29           -2.2932    -6.7870    -0.0106 C.3     
  30 C30           -3.7571    -6.3427     0.0080 C.3     
  31 N31           -4.6280    -7.5258     0.0096 N.3     
  32 C32           -6.0444    -7.1368     0.0274 C.3     
  33 C33           -6.5183    -6.8711    -1.4028 C.3     
  34 C34           -6.8758    -8.2664     0.6386 C.3     
  35 O35           -6.8103    -9.4170    -0.2064 O.3     
  36 O36           -6.4692    -8.0855    -2.1543 O.3     
  37 H37           -0.8151     1.9454     0.0166 H       
  38 H38            4.1444     0.0349    -0.0373 H       
  39 H39            3.6454     4.2868    -0.0100 H       
  40 H40            2.4646     5.6790     0.0099 H       
  41 H41            0.9269     6.3556     0.0295 H       
  42 H42            5.4265     4.4950    -0.0279 H       
  43 H43            7.8709     4.7727    -0.0492 H       
  44 H44            9.3372     2.7972    -0.0737 H       
  45 H45            8.3680     0.5359    -0.0771 H       
  46 H46            5.9258     0.2400    -0.0437 H       
  47 H47            1.1581    -4.5680     2.0651 H       
  48 H48            2.6991    -4.0658     1.3233 H       
  49 H49            0.0483    -2.5531     1.2253 H       
  50 H50            1.5130    -2.0733     2.1168 H       
  51 H51            2.7576    -1.9251    -0.0333 H       
  52 H52            0.0268    -2.5399    -1.2511 H       
  53 H53            1.4759    -2.0505    -2.1627 H       
  54 H54            2.6754    -4.0513    -1.4112 H       
  55 H55            1.1217    -4.5457    -2.1315 H       
  56 H56           -1.5750    -4.9635     0.8837 H       
  57 H57           -1.5942    -4.9518    -0.8961 H       
  58 H58           -2.1044    -7.3784    -0.9066 H       
  59 H59           -2.0852    -7.3901     0.8732 H       
  60 H60           -3.9459    -5.7514     0.9040 H       
  61 H61           -3.9651    -5.7396    -0.8758 H       
  62 H62           -4.4270    -8.1237    -0.7779 H       
  63 H63           -6.1655    -6.2327     0.6242 H       
  64 H64           -7.5421    -6.4973    -1.3829 H       
  65 H65           -5.8697    -6.1291    -1.8686 H       
  66 H66           -6.4813    -8.5161     1.6235 H       
  67 H67           -7.9127    -7.9440     0.7336 H       
  68 H68           -7.3158   -10.1740     0.1200 H       
  69 H69           -6.7567    -7.9916    -3.0728 H       
@<TRIPOS>BOND
   1    1    2 1
   2    1    9 1
   3    1   37 1
   4    2    3 2
   5    3    4 1
   6    3   22 1
   7    4    5 ar
   8    4    9 ar
   9    5    6 ar
  10    5   38 1
  11    6    7 ar
  12    6   13 1
  13    7    8 ar
  14    7   39 1
  15    8    9 ar
  16    8   10 1
  17   10   11 2
  18   10   12 am
  19   12   40 1
  20   12   41 1
  21   13   14 ar
  22   13   18 ar
  23   14   15 ar
  24   14   42 1
  25   15   16 ar
  26   15   43 1
  27   16   17 ar
  28   16   44 1
  29   17   18 ar
  30   17   45 1
  31   18   46 1
  32   19   20 1
  33   19   24 1
  34   19   25 am
  35   20   21 1
  36   20   47 1
  37   20   48 1
  38   21   22 1
  39   21   49 1
  40   21   50 1
  41   22   23 1
  42   22   51 1
  43   23   24 1
  44   23   52 1
  45   23   53 1
  46   24   54 1
  47   24   55 1
  48   25   26 2
  49   25   27 2
  50   25   28 1
  51   28   29 1
  52   28   56 1
  53   28   57 1
  54   29   30 1
  55   29   58 1
  56   29   59 1
  57   30   31 1
  58   30   60 1
  59   30   61 1
  60   31   32 1
  61   31   62 1
  62   32   33 1
  63   32   34 1
  64   32   63 1
  65   33   36 1
  66   33   64 1
  67   33   65 1
  68   34   35 1
  69   34   66 1
  70   34   67 1
  71   35   68 1
  72   36   69 1

#	End of record

