#	Name: ASD02038778
#	Creating user name:	WinNT
#	Creation time:	15. 06. 2019 20:17

#	Modifying user name:	WinNT
#	Modification time:	15. 06. 2019 20:17

#	Program:	/corina/corina34_cracker 3.40 0067  02.08.2006

@<TRIPOS>MOLECULE
ASD02038778
  44   46    0    0    0
SMALL
NO_CHARGES


@<TRIPOS>ATOM
   1 C1             0.0563     1.3026    -0.8393 C.2     
   2 C2             0.0247    -0.1458    -0.5718 C.2     
   3 N3             1.1677    -0.8597    -0.5908 N.am    
   4 C4             1.1557    -2.2721    -0.2021 C.3     
   5 O5             1.1187    -3.0884    -1.3745 O.3     
   6 C6             2.4222    -0.2232    -1.0001 C.3     
   7 O7            -1.0328    -0.6973    -0.3337 O.2     
   8 N8             1.1679     2.0739    -0.9512 N.2     
   9 C9             0.8062     3.3016    -1.1888 C.2     
  10 N10           -0.5501     3.3616    -1.2378 N.pl3   
  11 C11           -1.0259     2.1120    -1.0256 C.2     
  12 C12            2.3079    -3.3650    -1.9717 C.ar    
  13 C13            3.4882    -2.8849    -1.4246 C.ar    
  14 C14            2.2237     0.4825    -2.3451 C.3     
  15 C15            3.5156     1.2100    -2.7263 C.3     
  16 O16            3.8627     2.1345    -1.6934 O.3     
  17 C17            4.1066     1.5260    -0.4236 C.3     
  18 C18            2.8385     0.8112     0.0502 C.3     
  19 C19           -1.3535     4.5619    -1.4827 C.3     
  20 C20            4.6961    -3.1674    -2.0336 C.ar    
  21 C21            4.7291    -3.9276    -3.1876 C.ar    
  22 C22            3.5540    -4.4080    -3.7360 C.ar    
  23 C23            2.3436    -4.1337    -3.1275 C.ar    
  24 Cl24           0.8686    -4.7374    -3.8156 Cl      
  25 H25            2.0551    -2.4991     0.3703 H       
  26 H26            0.2757    -2.4734     0.4088 H       
  27 H27            3.2005    -0.9801    -1.0968 H       
  28 H28            1.4762     4.1377    -1.3247 H       
  29 H29           -2.0638     1.8143    -1.0011 H       
  30 H30            3.4634    -2.2903    -0.5234 H       
  31 H31            1.9811    -0.2544    -3.1107 H       
  32 H32            1.4106     1.2036    -2.2616 H       
  33 H33            4.3191     0.4838    -2.8492 H       
  34 H34            3.3666     1.7493    -3.6618 H       
  35 H35            4.9178     0.8039    -0.5163 H       
  36 H36            4.3834     2.2930     0.2999 H       
  37 H37            2.0378     1.5389     0.1821 H       
  38 H38            3.0355     0.3094     0.9976 H       
  39 H39           -1.5249     4.6722    -2.5535 H       
  40 H40           -2.3105     4.4696    -0.9691 H       
  41 H41           -0.8228     5.4370    -1.1077 H       
  42 H42            5.6154    -2.7935    -1.6075 H       
  43 H43            5.6743    -4.1464    -3.6621 H       
  44 H44            3.5823    -5.0015    -4.6379 H       
@<TRIPOS>BOND
   1    1    2 1
   2    1    8 1
   3    1   11 2
   4    2    3 am
   5    2    7 2
   6    3    4 1
   7    3    6 1
   8    4    5 1
   9    4   25 1
  10    4   26 1
  11    5   12 1
  12    6   14 1
  13    6   18 1
  14    6   27 1
  15    8    9 2
  16    9   10 1
  17    9   28 1
  18   10   11 1
  19   10   19 1
  20   11   29 1
  21   12   13 ar
  22   12   23 ar
  23   13   20 ar
  24   13   30 1
  25   14   15 1
  26   14   31 1
  27   14   32 1
  28   15   16 1
  29   15   33 1
  30   15   34 1
  31   16   17 1
  32   17   18 1
  33   17   35 1
  34   17   36 1
  35   18   37 1
  36   18   38 1
  37   19   39 1
  38   19   40 1
  39   19   41 1
  40   20   21 ar
  41   20   42 1
  42   21   22 ar
  43   21   43 1
  44   22   23 ar
  45   22   44 1
  46   23   24 1

#	End of record

