#	Name: ASD05790128
#	Creating user name:	WinNT
#	Creation time:	15. 06. 2019 21:03

#	Modifying user name:	WinNT
#	Modification time:	15. 06. 2019 21:03

#	Program:	/corina/corina34_cracker 3.40 0067  02.08.2006

@<TRIPOS>MOLECULE
ASD05790128
  49   52    0    0    0
SMALL
NO_CHARGES


@<TRIPOS>ATOM
   1 C1            -0.3517     2.3398     0.8224 C.ar    
   2 C2            -0.5029     0.9721     1.0607 C.ar    
   3 C3             0.6230     0.1477     1.1185 C.ar    
   4 C4             1.8786     0.6858     0.9403 C.ar    
   5 C5             2.0258     2.0482     0.7036 C.ar    
   6 C6             0.9067     2.8716     0.6451 C.ar    
   7 N7             3.2999     2.5906     0.5244 N.am    
   8 C8            -1.8509     0.3985     1.2519 C.2     
   9 O9            -3.0055     1.0863     1.2188 O.3     
  10 N10           -2.1173    -0.8658     1.4758 N.2     
  11 C11           -3.4537    -1.0088     1.5965 C.2     
  12 C12           -4.0120     0.2173     1.4351 C.2     
  13 C13           -4.1805    -2.2766     1.8546 C.ar    
  14 C14           -3.4758    -3.4702     1.9969 C.ar    
  15 C15           -4.1568    -4.6463     2.2373 C.ar    
  16 C16           -5.5365    -4.6416     2.3367 C.ar    
  17 C17           -6.2412    -3.4596     2.1963 C.ar    
  18 C18           -5.5699    -2.2768     1.9614 C.ar    
  19 C19            3.4749     3.6418    -0.3008 C.2     
  20 O20            2.5397     4.0656    -0.9521 O.2     
  21 C21            4.8014     4.2783    -0.4137 C.ar    
  22 C22            5.8410     3.8862     0.4336 C.ar    
  23 C23            5.0229     5.2711    -1.3723 C.ar    
  24 C24            6.2620     5.8625    -1.4745 C.ar    
  25 C25            7.2922     5.4733    -0.6260 C.ar    
  26 C26            7.0775     4.4828     0.3250 C.ar    
  27 O27            8.5122     6.0584    -0.7302 O.3     
  28 C28            9.5255     5.6110     0.1727 C.3     
  29 C29            3.9072     5.6931    -2.2932 C.3     
  30 H30           -1.2207     2.9792     0.7727 H       
  31 H31            0.5095    -0.9103     1.3030 H       
  32 H32            2.7497     0.0489     0.9848 H       
  33 H33            1.0243     3.9293     0.4607 H       
  34 H34            4.0591     2.2108     0.9937 H       
  35 H35           -5.0653     0.4525     1.4734 H       
  36 H36           -2.3986    -3.4751     1.9187 H       
  37 H37           -3.6116    -5.5720     2.3477 H       
  38 H38           -6.0655    -5.5643     2.5242 H       
  39 H39           -7.3183    -3.4617     2.2745 H       
  40 H40           -6.1210    -1.3544     1.8523 H       
  41 H41            5.6750     3.1166     1.1729 H       
  42 H42            6.4340     6.6297    -2.2149 H       
  43 H43            7.8804     4.1832     0.9823 H       
  44 H44            9.2022     5.7884     1.1984 H       
  45 H45            9.6984     4.5449     0.0254 H       
  46 H46           10.4487     6.1585    -0.0171 H       
  47 H47            3.2710     6.4177    -1.7849 H       
  48 H48            4.3285     6.1460    -3.1907 H       
  49 H49            3.3150     4.8209    -2.5701 H       
@<TRIPOS>BOND
   1    1    2 ar
   2    1    6 ar
   3    1   30 1
   4    2    3 ar
   5    2    8 1
   6    3    4 ar
   7    3   31 1
   8    4    5 ar
   9    4   32 1
  10    5    6 ar
  11    5    7 1
  12    6   33 1
  13    7   19 am
  14    7   34 1
  15    8    9 1
  16    8   10 2
  17    9   12 1
  18   10   11 1
  19   11   12 2
  20   11   13 1
  21   12   35 1
  22   13   14 ar
  23   13   18 ar
  24   14   15 ar
  25   14   36 1
  26   15   16 ar
  27   15   37 1
  28   16   17 ar
  29   16   38 1
  30   17   18 ar
  31   17   39 1
  32   18   40 1
  33   19   20 2
  34   19   21 1
  35   21   22 ar
  36   21   23 ar
  37   22   26 ar
  38   22   41 1
  39   23   24 ar
  40   23   29 1
  41   24   25 ar
  42   24   42 1
  43   25   26 ar
  44   25   27 1
  45   26   43 1
  46   27   28 1
  47   28   44 1
  48   28   45 1
  49   28   46 1
  50   29   47 1
  51   29   48 1
  52   29   49 1

#	End of record

