#	Name: ASD01028246
#	Creating user name:	WinNT
#	Creation time:	15. 06. 2019 18:56

#	Modifying user name:	WinNT
#	Modification time:	15. 06. 2019 18:56

#	Program:	/corina/corina34_cracker 3.40 0067  02.08.2006

@<TRIPOS>MOLECULE
ASD01028246
  43   47    0    0    0
SMALL
NO_CHARGES


@<TRIPOS>ATOM
   1 C1            -0.0165     1.3658     0.0096 C.ar    
   2 C2             0.0021    -0.0041     0.0020 C.ar    
   3 C3             1.1871     2.0786     0.0019 C.ar    
   4 N4             2.3453     1.4655    -0.0129 N.ar    
   5 C5             2.4265     0.1343    -0.0208 C.ar    
   6 C6             1.2509    -0.6527    -0.0134 C.ar    
   7 C7             3.6823    -0.5215    -0.0362 C.ar    
   8 C8             3.6925    -1.9066    -0.0433 C.ar    
   9 C9             2.4925    -2.6050    -0.0352 C.ar    
  10 N10            1.3341    -1.9873    -0.0204 N.ar    
  11 N11            4.8661     0.2018    -0.0444 N.pl3   
  12 C12            6.1526    -0.4989    -0.0603 C.3     
  13 C13            7.2733     0.5086    -0.0666 C.2     
  14 N14            7.8767     1.0363     1.0204 N.pl3   
  15 C15            8.8315     1.9010     0.5421 C.2     
  16 N16            8.7618     1.8562    -0.7785 N.2     
  17 N17            7.8416     1.0261    -1.1274 N.2     
  18 N18            7.7105     0.8682     2.3966 N.2     
  19 C19            8.4632     1.5333     3.2452 C.2     
  20 C20            9.4523     2.4285     2.7850 C.2     
  21 C21            9.6371     2.6128     1.4514 C.2     
  22 C22            8.2701     1.3406     4.7034 C.2     
  23 O23           -1.2013     2.0306     0.0188 O.3     
  24 C24           -1.1440     3.4584     0.0263 C.3     
  25 C25            8.9937     1.9779     5.7308 C.2     
  26 N26            8.5340     1.5496     6.8762 N.2     
  27 N27            7.5078     0.6300     6.6284 N.pl3   
  28 C28            7.3549     0.5180     5.2945 C.2     
  29 H29           -0.9171    -0.5710     0.0081 H       
  30 H30            1.1613     3.1582     0.0079 H       
  31 H31            4.6307    -2.4414    -0.0554 H       
  32 H32            2.5125    -3.6848    -0.0412 H       
  33 H33            4.8421     1.1715    -0.0396 H       
  34 H34            6.2346    -1.1281     0.8259 H       
  35 H35            6.2171    -1.1197    -0.9539 H       
  36 H36           10.0629     2.9683     3.4937 H       
  37 H37           10.3927     3.2964     1.0934 H       
  38 H38           -0.6118     3.7960     0.9156 H       
  39 H39           -0.6203     3.8057    -0.8643 H       
  40 H40           -2.1563     3.8626     0.0332 H       
  41 H41            9.7896     2.6953     5.5951 H       
  42 H42            6.9926     0.1581     7.3012 H       
  43 H43            6.6421    -0.1135     4.7851 H       
@<TRIPOS>BOND
   1    1    2 ar
   2    1    3 ar
   3    1   23 1
   4    2    6 ar
   5    2   29 1
   6    3    4 ar
   7    3   30 1
   8    4    5 ar
   9    5    6 ar
  10    5    7 ar
  11    6   10 ar
  12    7    8 ar
  13    7   11 1
  14    8    9 ar
  15    8   31 1
  16    9   10 ar
  17    9   32 1
  18   11   12 1
  19   11   33 1
  20   12   13 1
  21   12   34 1
  22   12   35 1
  23   13   14 1
  24   13   17 2
  25   14   15 1
  26   14   18 1
  27   15   16 2
  28   15   21 1
  29   16   17 1
  30   18   19 2
  31   19   20 1
  32   19   22 1
  33   20   21 2
  34   20   36 1
  35   21   37 1
  36   22   25 1
  37   22   28 2
  38   23   24 1
  39   24   38 1
  40   24   39 1
  41   24   40 1
  42   25   26 2
  43   25   41 1
  44   26   27 1
  45   27   28 1
  46   27   42 1
  47   28   43 1

#	End of record

