#	Name: ASD09740034
#	Creating user name:	WinNT
#	Creation time:	15. 06. 2019 21:22

#	Modifying user name:	WinNT
#	Modification time:	15. 06. 2019 21:22

#	Program:	/corina/corina34_cracker 3.40 0067  02.08.2006

@<TRIPOS>MOLECULE
ASD09740034
  48   51    0    0    0
SMALL
NO_CHARGES


@<TRIPOS>ATOM
   1 N1            -0.0137     1.2088     0.0104 N.2     
   2 O2             0.0026    -0.0038    -0.0004 O.3     
   3 C3             1.2068     1.6803     0.0126 C.2     
   4 N4             2.0468     0.6244     0.0017 N.2     
   5 C5             1.2707    -0.4439    -0.0065 C.2     
   6 C6             1.7131    -1.8529    -0.0195 C.ar    
   7 C7             1.5957     3.1129     0.0243 C.ar    
   8 C8             2.9412     3.4691     0.0247 C.ar    
   9 C9             3.2978     4.8026     0.0350 C.ar    
  10 C10            2.3214     5.7802     0.0453 C.ar    
  11 C11            0.9794     5.4334     0.0451 C.ar    
  12 C12            0.6124     4.1031     0.0290 C.ar    
  13 C13            3.0761    -2.1589    -0.0240 C.ar    
  14 C14            0.7699    -2.8828    -0.0213 C.ar    
  15 C15            1.1867    -4.1961    -0.0329 C.ar    
  16 C16            2.5430    -4.4962    -0.0427 C.ar    
  17 C17            3.4847    -3.4743    -0.0356 C.ar    
  18 O18            2.9498    -5.7916    -0.0537 O.3     
  19 C19            4.3532    -6.0299    -0.1784 C.3     
  20 C20            5.0072    -5.9599     1.2030 C.3     
  21 C21            4.5834    -7.4169    -0.7820 C.3     
  22 C22           -0.2579     6.3057     0.0551 C.3     
  23 C23           -1.4090     5.3790    -0.3906 C.3     
  24 C24           -0.8967     3.9870     0.0322 C.3     
  25 O25           -0.5034     6.8030     1.3721 O.3     
  26 C26            0.1698    -5.3083    -0.0344 C.3     
  27 F27           -1.1183    -4.7625    -0.0228 F       
  28 F28            0.3349    -6.0896    -1.1831 F       
  29 F29            0.3488    -6.1053     1.1014 F       
  30 H30            3.7040     2.7045     0.0174 H       
  31 H31            4.3410     5.0821     0.0354 H       
  32 H32            2.6059     6.8221     0.0540 H       
  33 H33            3.8085    -1.3652    -0.0189 H       
  34 H34           -0.2847    -2.6503    -0.0133 H       
  35 H35            4.5382    -3.7117    -0.0433 H       
  36 H36            4.7939    -5.2734    -0.8278 H       
  37 H37            4.8432    -4.9718     1.6330 H       
  38 H38            4.5665    -6.7164     1.8523 H       
  39 H39            6.0777    -6.1417     1.1078 H       
  40 H40            4.1175    -7.4667    -1.7661 H       
  41 H41            5.6539    -7.5986    -0.8772 H       
  42 H42            4.1427    -8.1734    -0.1327 H       
  43 H43           -0.1440     7.1318    -0.6468 H       
  44 H44           -2.3324     5.6292     0.1318 H       
  45 H45           -1.5485     5.4262    -1.4706 H       
  46 H46           -1.2199     3.2315    -0.6840 H       
  47 H47           -1.2546     3.7397     1.0316 H       
  48 H48            0.2076     7.3572     1.7221 H       
@<TRIPOS>BOND
   1    1    2 1
   2    1    3 2
   3    2    5 1
   4    3    4 1
   5    3    7 1
   6    4    5 2
   7    5    6 1
   8    6   13 ar
   9    6   14 ar
  10    7    8 ar
  11    7   12 ar
  12    8    9 ar
  13    8   30 1
  14    9   10 ar
  15    9   31 1
  16   10   11 ar
  17   10   32 1
  18   11   12 ar
  19   11   22 1
  20   12   24 1
  21   13   17 ar
  22   13   33 1
  23   14   15 ar
  24   14   34 1
  25   15   16 ar
  26   15   26 1
  27   16   17 ar
  28   16   18 1
  29   17   35 1
  30   18   19 1
  31   19   20 1
  32   19   21 1
  33   19   36 1
  34   20   37 1
  35   20   38 1
  36   20   39 1
  37   21   40 1
  38   21   41 1
  39   21   42 1
  40   22   23 1
  41   22   25 1
  42   22   43 1
  43   23   24 1
  44   23   44 1
  45   23   45 1
  46   24   46 1
  47   24   47 1
  48   25   48 1
  49   26   27 1
  50   26   28 1
  51   26   29 1

#	End of record

