#	Name: ASD09116187
#	Creating user name:	WinNT
#	Creation time:	15. 06. 2019 21:21

#	Modifying user name:	WinNT
#	Modification time:	15. 06. 2019 21:21

#	Program:	/corina/corina34_cracker 3.40 0067  02.08.2006

@<TRIPOS>MOLECULE
ASD09116187
  80   85    0    0    0
SMALL
NO_CHARGES


@<TRIPOS>ATOM
   1 N1            -0.6930    -0.9558     1.1725 N.2     
   2 C2            -1.0062    -2.3088     1.6656 C.3     
   3 C3             0.4742    -1.0355     0.5935 C.2     
   4 N4             0.9937    -2.2795     0.6328 N.2     
   5 C5             0.2029    -3.1216     1.2453 C.2     
   6 N6             1.1089     0.0388     0.0036 N.pl3   
   7 C7             2.4081    -0.1054    -0.5002 C.ar    
   8 C8             2.8106     0.6342    -1.6037 C.ar    
   9 C9             3.2951    -0.9844     0.1082 C.ar    
  10 C10            4.5768    -1.1262    -0.3887 C.ar    
  11 C11            4.9775    -0.3885    -1.4977 C.ar    
  12 C12            4.0918     0.4927    -2.1013 C.ar    
  13 N13            0.4193    -4.4471     1.4604 N.pl3   
  14 C14           -1.1507    -2.3077     3.1656 C.ar    
  15 N15           -0.2784    -1.6407     3.8943 N.ar    
  16 N16           -2.1480    -2.9686     3.7145 N.ar    
  17 C17           -2.3109    -2.9932     5.0328 C.ar    
  18 C18           -1.4177    -2.3069     5.8268 C.ar    
  19 C19           -0.3790    -1.6177     5.2125 C.ar    
  20 F20            5.4403    -1.9805     0.2027 F       
  21 N21            6.2767    -0.5315    -2.0023 N.3     
  22 C22            6.2522    -0.9964    -3.3950 C.3     
  23 C23            7.6808    -1.2801    -3.8647 C.3     
  24 C24            8.5144    -0.0009    -3.7487 C.3     
  25 C25            8.4839     0.4890    -2.2983 C.3     
  26 C26            7.0320     0.7213    -1.8740 C.3     
  27 N27            9.9015    -0.2815    -4.1429 N.3     
  28 C28            9.9637    -0.8058    -5.5196 C.3     
  29 C29           10.8968     0.1255    -6.3217 C.3     
  30 C30           11.7577     0.7934    -5.2173 C.3     
  31 C31           10.7314     0.9397    -4.0663 C.3     
  32 C32           -3.4619    -3.7781     5.6005 C.3     
  33 C33           -3.7444    -3.3470     7.0391 C.3     
  34 C34           -2.4304    -3.3893     7.8276 C.3     
  35 C35           -1.5272    -2.2632     7.3256 C.3     
  36 C36           -0.1346    -2.4198     7.9395 C.3     
  37 C37            0.7318    -3.2870     7.0239 C.3     
  38 C38            0.5110    -1.0417     8.0974 C.3     
  39 C39           -0.2539    -3.0873     9.3110 C.3     
  40 H40           -1.9118    -2.6899     1.1936 H       
  41 H41            0.6554     0.8938    -0.0622 H       
  42 H42            2.1218     1.3205    -2.0738 H       
  43 H43            2.9833    -1.5565     0.9695 H       
  44 H44            4.4026     1.0653    -2.9627 H       
  45 H45            1.2364    -4.8627     1.1435 H       
  46 H46           -0.2434    -4.9766     1.9307 H       
  47 H47            0.3408    -1.0730     5.8055 H       
  48 H48            5.6597    -1.9088    -3.4628 H       
  49 H49            5.8081    -0.2273    -4.0269 H       
  50 H50            8.1208    -2.0589    -3.2419 H       
  51 H51            7.6636    -1.6102    -4.9034 H       
  52 H52            8.0973     0.7661    -4.4011 H       
  53 H53            8.9365    -0.2620    -1.6509 H       
  54 H54            9.0404     1.4228    -2.2178 H       
  55 H55            6.5842     1.4824    -2.5130 H       
  56 H56            7.0058     1.0566    -0.8371 H       
  57 H57           10.3670    -1.8184    -5.5129 H       
  58 H58            8.9678    -0.8038    -5.9625 H       
  59 H59           11.5231    -0.4502    -7.0031 H       
  60 H60           10.3200     0.8735    -6.8658 H       
  61 H61           12.5849     0.1475    -4.9231 H       
  62 H62           12.1217     1.7681    -5.5421 H       
  63 H63           10.1161     1.8267    -4.2169 H       
  64 H64           11.2435     0.9907    -3.1054 H       
  65 H65           -4.3499    -3.6067     4.9920 H       
  66 H66           -3.2169    -4.8401     5.5841 H       
  67 H67           -4.1428    -2.3325     7.0457 H       
  68 H68           -4.4646    -4.0291     7.4909 H       
  69 H69           -2.6355    -3.2487     8.8889 H       
  70 H70           -1.9397    -4.3498     7.6705 H       
  71 H71           -1.9456    -1.3034     7.6285 H       
  72 H72            0.9992    -2.7196     6.1324 H       
  73 H73            1.6383    -3.5809     7.5530 H       
  74 H74            0.1751    -4.1781     6.7340 H       
  75 H75           -0.1646    -0.3846     8.6450 H       
  76 H76            1.4472    -1.1399     8.6471 H       
  77 H77            0.7105    -0.6189     7.1128 H       
  78 H78           -0.7139    -4.0691     9.1985 H       
  79 H79            0.7382    -3.1989     9.7484 H       
  80 H80           -0.8712    -2.4695     9.9633 H       
@<TRIPOS>BOND
   1    1    2 1
   2    1    3 2
   3    2   14 1
   4    2    5 1
   5    2   40 1
   6    3    4 1
   7    3    6 1
   8    4    5 2
   9    5   13 1
  10    6    7 1
  11    6   41 1
  12    7    8 ar
  13    7    9 ar
  14    8   12 ar
  15    8   42 1
  16    9   10 ar
  17    9   43 1
  18   10   11 ar
  19   10   20 1
  20   11   12 ar
  21   11   21 1
  22   12   44 1
  23   13   45 1
  24   13   46 1
  25   14   15 ar
  26   14   16 ar
  27   15   19 ar
  28   16   17 ar
  29   17   18 ar
  30   17   32 1
  31   18   19 ar
  32   18   35 1
  33   19   47 1
  34   21   22 1
  35   21   26 1
  36   22   23 1
  37   22   48 1
  38   22   49 1
  39   23   24 1
  40   23   50 1
  41   23   51 1
  42   24   25 1
  43   24   27 1
  44   24   52 1
  45   25   26 1
  46   25   53 1
  47   25   54 1
  48   26   55 1
  49   26   56 1
  50   27   28 1
  51   27   31 1
  52   28   29 1
  53   28   57 1
  54   28   58 1
  55   29   30 1
  56   29   59 1
  57   29   60 1
  58   30   31 1
  59   30   61 1
  60   30   62 1
  61   31   63 1
  62   31   64 1
  63   32   33 1
  64   32   65 1
  65   32   66 1
  66   33   34 1
  67   33   67 1
  68   33   68 1
  69   34   35 1
  70   34   69 1
  71   34   70 1
  72   35   36 1
  73   35   71 1
  74   36   37 1
  75   36   38 1
  76   36   39 1
  77   37   72 1
  78   37   73 1
  79   37   74 1
  80   38   75 1
  81   38   76 1
  82   38   77 1
  83   39   78 1
  84   39   79 1
  85   39   80 1

#	End of record

