#	Name: ASD01812126
#	Creating user name:	WinNT
#	Creation time:	15. 06. 2019 19:28

#	Modifying user name:	WinNT
#	Modification time:	15. 06. 2019 19:28

#	Program:	/corina/corina34_cracker 3.40 0067  02.08.2006

@<TRIPOS>MOLECULE
ASD01812126
  40   42    0    0    0
SMALL
NO_CHARGES


@<TRIPOS>ATOM
   1 O1            -2.6106     1.1668     0.0333 O.2     
   2 O2            -0.0162     1.3438     0.0094 O.3     
   3 O3             1.0629    -0.5975    -0.0113 O.2     
   4 N4            -2.3859    -2.8543     0.0086 N.pl3   
   5 C5            -6.1580    -1.1000     0.0558 C.ar    
   6 C6            -3.7724    -0.8786     0.0329 C.ar    
   7 C7            -3.6371    -2.2770     0.0237 C.ar    
   8 C8            -7.5299    -0.4766     0.0738 C.3     
   9 C9            -5.0398    -0.2961     0.0490 C.ar    
  10 C10           -6.0270    -2.4816     0.0459 C.ar    
  11 C11           -4.7819    -3.0703     0.0304 C.ar    
  12 C12           -2.5521    -0.0503     0.0262 C.2     
  13 C13           -8.0019    -0.2604    -1.3410 C.ar    
  14 C14           -1.2606    -0.7562     0.0100 C.2     
  15 C15           -1.2554    -2.1365     0.0021 C.2     
  16 C16           -8.7137    -1.2511    -1.9912 C.ar    
  17 C17           -7.7280     0.9309    -1.9866 C.ar    
  18 C18            0.0021    -0.0041     0.0020 C.2     
  19 C19           -9.1466    -1.0528    -3.2889 C.ar    
  20 C20           -8.1610     1.1292    -3.2843 C.ar    
  21 C21           -8.8682     0.1364    -3.9363 C.ar    
  22 C22            1.2684     2.0206     0.0008 C.3     
  23 C23            1.0474     3.5345     0.0110 C.3     
  24 H24           -8.2235    -1.1396     0.5909 H       
  25 H25           -7.4871     0.4809     0.5928 H       
  26 H26           -5.1435     0.7789     0.0564 H       
  27 H27           -6.9111    -3.1019     0.0514 H       
  28 H28           -4.6933    -4.1466     0.0231 H       
  29 H29           -2.3212    -3.8222     0.0066 H       
  30 H30           -0.3080    -2.6548    -0.0094 H       
  31 H31           -8.9312    -2.1803    -1.4854 H       
  32 H32           -7.1761     1.7068    -1.4769 H       
  33 H33           -9.7021    -1.8272    -3.7971 H       
  34 H34           -7.9474     2.0601    -3.7885 H       
  35 H35           -9.2062     0.2912    -4.9503 H       
  36 H36            1.8378     1.7305     0.8838 H       
  37 H37            1.8208     1.7401    -0.8960 H       
  38 H38            0.4780     3.8245    -0.8720 H       
  39 H39            0.4950     3.8150     0.9079 H       
  40 H40            2.0118     4.0425     0.0046 H       
@<TRIPOS>BOND
   1    1   12 2
   2    2   18 1
   3    2   22 1
   4    3   18 2
   5    4    7 1
   6    4   15 1
   7    4   29 1
   8    5    8 1
   9    5    9 ar
  10    5   10 ar
  11    6    7 ar
  12    6    9 ar
  13    6   12 1
  14    7   11 ar
  15    8   13 1
  16    8   24 1
  17    8   25 1
  18    9   26 1
  19   10   11 ar
  20   10   27 1
  21   11   28 1
  22   12   14 1
  23   13   16 ar
  24   13   17 ar
  25   14   15 2
  26   14   18 1
  27   15   30 1
  28   16   19 ar
  29   16   31 1
  30   17   20 ar
  31   17   32 1
  32   19   21 ar
  33   19   33 1
  34   20   21 ar
  35   20   34 1
  36   21   35 1
  37   22   23 1
  38   22   36 1
  39   22   37 1
  40   23   38 1
  41   23   39 1
  42   23   40 1

#	End of record

