#	Name: ASD01720119
#	Creating user name:	WinNT
#	Creation time:	15. 06. 2019 19:23

#	Modifying user name:	WinNT
#	Modification time:	15. 06. 2019 19:23

#	Program:	/corina/corina34_cracker 3.40 0067  02.08.2006

@<TRIPOS>MOLECULE
ASD01720119
  69   73    0    0    0
SMALL
NO_CHARGES


@<TRIPOS>ATOM
   1 C1            -0.0167     1.3771     0.0096 C.ar    
   2 C2             0.0021    -0.0041     0.0020 C.ar    
   3 C3             1.2265    -0.6713    -0.0133 C.ar    
   4 N4             2.3709     0.0017    -0.0201 N.ar    
   5 C5             2.3995     1.3215    -0.0133 C.ar    
   6 C6             1.2056     2.0609     0.0016 C.ar    
   7 O7             3.5897     1.9676    -0.0207 O.3     
   8 C8             4.7672     1.1582    -0.0359 C.3     
   9 C9             6.0046     2.0580    -0.0424 C.3     
  10 C10            7.2654     1.1913    -0.0586 C.3     
  11 C11            7.3283     0.4071    -1.3708 C.3     
  12 C12            8.5008     2.0860     0.0606 C.3     
  13 C13            1.2385     3.5350     0.0092 C.2     
  14 O14            2.3048     4.1195     0.0022 O.2     
  15 N15            0.0866     4.2347     0.0240 N.am    
  16 C16            0.1192     5.6993     0.0315 C.3     
  17 C17           -1.1822     6.2415    -0.5628 C.3     
  18 C18           -1.1481     7.7711    -0.5549 C.3     
  19 C19            0.2700     6.1987     1.4699 C.3     
  20 C20            0.3041     7.7283     1.4778 C.3     
  21 C21           -0.9974     8.2704     0.8834 C.3     
  22 C22           -0.9147     5.7106     2.3060 C.3     
  23 C23           -2.3669     5.7534     0.2733 C.3     
  24 C24           -2.1821     7.7824     1.7196 C.3     
  25 C25           -2.2162     6.2528     1.7117 C.3     
  26 O26           -0.9656     9.6991     0.8908 O.3     
  27 C27            1.2506    -2.1533    -0.0214 C.ar    
  28 C28            2.4704    -2.8306    -0.0367 C.ar    
  29 C29            2.4938    -4.2074    -0.0443 C.ar    
  30 C30            1.2958    -4.9261    -0.0368 C.ar    
  31 C31            0.0749    -4.2469    -0.0215 C.ar    
  32 C32            0.0536    -2.8701    -0.0081 C.ar    
  33 C33            1.3198    -6.4029    -0.0454 C.2     
  34 O34            2.3815    -6.9930    -0.0591 O.2     
  35 O35            0.1643    -7.0955    -0.0381 O.3     
  36 H36           -0.9519     1.9171     0.0170 H       
  37 H37           -0.9227    -0.5619     0.0082 H       
  38 H38            4.7837     0.5241     0.8506 H       
  39 H39            4.7674     0.5337    -0.9293 H       
  40 H40            5.9881     2.6920    -0.9289 H       
  41 H41            6.0045     2.6825     0.8510 H       
  42 H42            7.2386     0.4953     0.7798 H       
  43 H43            8.2265    -0.2103    -1.3824 H       
  44 H44            6.4482    -0.2303    -1.4558 H       
  45 H45            7.3551     1.1032    -2.2092 H       
  46 H46            8.4560     2.6447     0.9954 H       
  47 H47            9.3990     1.4686     0.0490 H       
  48 H48            8.5276     2.7821    -0.7778 H       
  49 H49           -0.7640     3.7685     0.0296 H       
  50 H50            0.9633     6.0470    -0.5641 H       
  51 H51           -1.2896     5.8857    -1.5875 H       
  52 H52           -0.3041     8.1188    -1.1506 H       
  53 H53           -2.0753     8.1573    -0.9783 H       
  54 H54            1.1972     5.8124     1.8933 H       
  55 H55            0.4115     8.0840     2.5025 H       
  56 H56            1.1481     8.0760     0.8821 H       
  57 H57           -0.9390     4.6209     2.3004 H       
  58 H58           -0.8073     6.0663     3.3307 H       
  59 H59           -3.2941     6.1397    -0.1501 H       
  60 H60           -2.3912     4.6637     0.2677 H       
  61 H61           -2.0747     8.1381     2.7443 H       
  62 H62           -3.1093     8.1686     1.2961 H       
  63 H63           -3.0602     5.9051     2.3073 H       
  64 H64           -1.7608    10.1121     0.5272 H       
  65 H65            3.3964    -2.2749    -0.0429 H       
  66 H66            3.4381    -4.7315    -0.0565 H       
  67 H67           -0.8517    -4.8016    -0.0160 H       
  68 H68           -0.8900    -2.3449     0.0037 H       
  69 H69            0.2306    -8.0602    -0.0442 H       
@<TRIPOS>BOND
   1    1    2 ar
   2    1    6 ar
   3    1   36 1
   4    2    3 ar
   5    2   37 1
   6    3    4 ar
   7    3   27 1
   8    4    5 ar
   9    5    6 ar
  10    5    7 1
  11    6   13 1
  12    7    8 1
  13    8    9 1
  14    8   38 1
  15    8   39 1
  16    9   10 1
  17    9   40 1
  18    9   41 1
  19   10   11 1
  20   10   12 1
  21   10   42 1
  22   11   43 1
  23   11   44 1
  24   11   45 1
  25   12   46 1
  26   12   47 1
  27   12   48 1
  28   13   14 2
  29   13   15 am
  30   15   16 1
  31   15   49 1
  32   16   17 1
  33   16   19 1
  34   16   50 1
  35   17   18 1
  36   17   23 1
  37   17   51 1
  38   18   21 1
  39   18   52 1
  40   18   53 1
  41   19   20 1
  42   19   22 1
  43   19   54 1
  44   20   21 1
  45   20   55 1
  46   20   56 1
  47   21   24 1
  48   21   26 1
  49   22   25 1
  50   22   57 1
  51   22   58 1
  52   23   25 1
  53   23   59 1
  54   23   60 1
  55   24   25 1
  56   24   61 1
  57   24   62 1
  58   25   63 1
  59   26   64 1
  60   27   28 ar
  61   27   32 ar
  62   28   29 ar
  63   28   65 1
  64   29   30 ar
  65   29   66 1
  66   30   31 ar
  67   30   33 1
  68   31   32 ar
  69   31   67 1
  70   32   68 1
  71   33   34 2
  72   33   35 1
  73   35   69 1

#	End of record

