#	Name: ASD04530022
#	Creating user name:	WinNT
#	Creation time:	15. 06. 2019 20:49

#	Modifying user name:	WinNT
#	Modification time:	15. 06. 2019 20:49

#	Program:	/corina/corina34_cracker 3.40 0067  02.08.2006

@<TRIPOS>MOLECULE
ASD04530022
  33   34    0    0    0
SMALL
NO_CHARGES


@<TRIPOS>ATOM
   1 C1             0.0958     1.8195    -0.2110 C.ar    
   2 C2            -0.0099     0.4581     0.0386 C.ar    
   3 C3             1.1316    -0.3016     0.2546 C.ar    
   4 C4             2.3750     0.2946     0.2218 C.ar    
   5 C5             2.4845     1.6614    -0.0292 C.ar    
   6 C6             1.3363     2.4215    -0.2457 C.ar    
   7 C7             3.8201     2.3058    -0.0648 C.2     
   8 C8             4.8617     1.7657    -0.7197 C.2     
   9 S9             6.2521     2.8295    -0.5211 S.3     
  10 C10            5.2766     3.9286     0.4488 C.2     
  11 N11            4.0695     3.4634     0.5457 N.2     
  12 N12            5.7269     5.1096     1.0163 N.pl3   
  13 O13           -1.2337    -0.1321     0.0721 O.3     
  14 C14            4.3257     0.7292    -2.9077 C.3     
  15 C15            4.8439     0.4714    -1.4914 C.3     
  16 C16           -2.7218    -2.0184     0.3329 C.3     
  17 C17           -1.2697    -1.5364     0.3343 C.3     
  18 H18           -0.7940     2.4071    -0.3827 H       
  19 H19            1.0460    -1.3605     0.4490 H       
  20 H20            3.2627    -0.2969     0.3906 H       
  21 H21            1.4179     3.4806    -0.4407 H       
  22 H22            6.6479     5.3873     0.8916 H       
  23 H23            5.1212     5.6587     1.5384 H       
  24 H24            4.3959    -0.1877    -3.4928 H       
  25 H25            3.2855     1.0517    -2.8609 H       
  26 H26            4.9265     1.5075    -3.3784 H       
  27 H27            5.8540     0.0649    -1.5425 H       
  28 H28            4.1901    -0.2419    -0.9895 H       
  29 H29           -2.7492    -3.0896     0.5329 H       
  30 H30           -3.2807    -1.4902     1.1054 H       
  31 H31           -3.1699    -1.8190    -0.6405 H       
  32 H32           -0.7108    -2.0647    -0.4381 H       
  33 H33           -0.8216    -1.7359     1.3077 H       
@<TRIPOS>BOND
   1    1    2 ar
   2    1    6 ar
   3    1   18 1
   4    2    3 ar
   5    2   13 1
   6    3    4 ar
   7    3   19 1
   8    4    5 ar
   9    4   20 1
  10    5    6 ar
  11    5    7 1
  12    6   21 1
  13    7    8 2
  14    7   11 1
  15    8    9 1
  16    8   15 1
  17    9   10 1
  18   10   11 2
  19   10   12 1
  20   12   22 1
  21   12   23 1
  22   13   17 1
  23   14   15 1
  24   14   24 1
  25   14   25 1
  26   14   26 1
  27   15   27 1
  28   15   28 1
  29   16   17 1
  30   16   29 1
  31   16   30 1
  32   16   31 1
  33   17   32 1
  34   17   33 1

#	End of record

