#	Name: ASD01816688
#	Creating user name:	WinNT
#	Creation time:	15. 06. 2019 19:35

#	Modifying user name:	WinNT
#	Modification time:	15. 06. 2019 19:35

#	Program:	/corina/corina34_cracker 3.40 0067  02.08.2006

@<TRIPOS>MOLECULE
ASD01816688
  63   67    0    0    0
SMALL
NO_CHARGES


@<TRIPOS>ATOM
   1 C1            -0.0167     1.3960     0.0136 C.2     
   2 C2             0.0025    -0.0052    -0.0037 C.2     
   3 C3             1.1989    -0.6602    -0.0251 C.2     
   4 C4             2.3922     0.0815    -0.0294 C.2     
   5 N5             2.3439     1.4491    -0.0118 N.am    
   6 C6             1.1420     2.0927     0.0091 C.2     
   7 C7             3.6230    -0.5886    -0.0513 C.2     
   8 C8             4.7879     0.1231    -0.0557 C.2     
   9 C9             4.7340     1.5284    -0.0381 C.2     
  10 C10            3.4813     2.1731    -0.0159 C.2     
  11 C11            3.6605    -2.0951    -0.0695 C.3     
  12 O12            3.4256     3.3913    -0.0005 O.2     
  13 C13            5.9710     2.3159    -0.0418 C.2     
  14 N14            7.1647     1.6963     0.0459 N.am    
  15 O15            5.9198     3.5292    -0.1240 O.2     
  16 N16            3.7776    -2.5653    -1.4563 N.3     
  17 C17            4.0544    -4.0067    -1.5016 C.3     
  18 C18            4.3137    -4.4324    -2.9485 C.3     
  19 C19            3.0848    -4.1027    -3.8004 C.3     
  20 C20            2.7893    -2.6038    -3.6973 C.3     
  21 C21            2.5742    -2.2311    -2.2287 C.3     
  22 C22            3.3566    -4.4647    -5.2378 C.ar    
  23 N23            4.5945    -4.6960    -5.6287 N.ar    
  24 C24            1.9266    -4.8673    -3.3098 C.1     
  25 N25            1.0328    -5.4574    -2.9312 N.1     
  26 C26            4.8796    -5.0157    -6.8760 C.ar    
  27 C27            3.8807    -5.1198    -7.8250 C.ar    
  28 C28            2.5663    -4.8837    -7.4513 C.ar    
  29 C29            2.3048    -4.5559    -6.1300 C.ar    
  30 C30            8.4025     2.4710    -0.0711 C.3     
  31 C31            9.5503     1.7428     0.6501 C.3     
  32 C32           10.6210     1.4408    -0.4185 C.3     
  33 C33           10.3618     2.4940    -1.5243 C.3     
  34 C34            8.8159     2.5861    -1.5529 C.3     
  35 H35           -0.9603     1.9212     0.0262 H       
  36 H36           -0.9228    -0.5622     0.0002 H       
  37 H37            1.2286    -1.7397    -0.0383 H       
  38 H38            1.1153     3.1723     0.0228 H       
  39 H39            5.7397    -0.3869    -0.0722 H       
  40 H40            4.5177    -2.4442     0.5062 H       
  41 H41            2.7434    -2.4867     0.3707 H       
  42 H42            7.2041     0.7373     0.1865 H       
  43 H43            4.9330    -4.2271    -0.8952 H       
  44 H44            3.1967    -4.5537    -1.1102 H       
  45 H45            5.1797    -3.8960    -3.3361 H       
  46 H46            4.5037    -5.5052    -2.9837 H       
  47 H47            3.6314    -2.0386    -4.0966 H       
  48 H48            1.8902    -2.3701    -4.2675 H       
  49 H49            1.7234    -2.7864    -1.8339 H       
  50 H50            2.3777    -1.1618    -2.1504 H       
  51 H51            5.9058    -5.1980    -7.1590 H       
  52 H52            4.1206    -5.3813    -8.8451 H       
  53 H53            1.7650    -4.9574    -8.1716 H       
  54 H54            1.2929    -4.3659    -5.8037 H       
  55 H55            8.2631     3.4639     0.3566 H       
  56 H56            9.9684     2.3826     1.4273 H       
  57 H57            9.1863     0.8130     1.0872 H       
  58 H58           11.6209     1.5631    -0.0020 H       
  59 H59           10.4920     0.4331    -0.8137 H       
  60 H60           10.8010     3.4542    -1.2538 H       
  61 H61           10.7460     2.1489    -2.4842 H       
  62 H62            8.3953     1.7634    -2.1312 H       
  63 H63            8.4983     3.5442    -1.9642 H       
@<TRIPOS>BOND
   1    1    2 1
   2    1    6 2
   3    1   35 1
   4    2    3 2
   5    2   36 1
   6    3    4 1
   7    3   37 1
   8    4    5 1
   9    4    7 2
  10    5    6 1
  11    5   10 am
  12    6   38 1
  13    7    8 1
  14    7   11 1
  15    8    9 2
  16    8   39 1
  17    9   10 1
  18    9   13 1
  19   10   12 2
  20   11   16 1
  21   11   40 1
  22   11   41 1
  23   13   14 am
  24   13   15 2
  25   14   30 1
  26   14   42 1
  27   16   17 1
  28   16   21 1
  29   17   18 1
  30   17   43 1
  31   17   44 1
  32   18   19 1
  33   18   45 1
  34   18   46 1
  35   19   20 1
  36   19   22 1
  37   19   24 1
  38   20   21 1
  39   20   47 1
  40   20   48 1
  41   21   49 1
  42   21   50 1
  43   22   23 ar
  44   22   29 ar
  45   23   26 ar
  46   24   25 3
  47   26   27 ar
  48   26   51 1
  49   27   28 ar
  50   27   52 1
  51   28   29 ar
  52   28   53 1
  53   29   54 1
  54   30   31 1
  55   30   34 1
  56   30   55 1
  57   31   32 1
  58   31   56 1
  59   31   57 1
  60   32   33 1
  61   32   58 1
  62   32   59 1
  63   33   34 1
  64   33   60 1
  65   33   61 1
  66   34   62 1
  67   34   63 1

#	End of record

