#	Name: ASD09116366
#	Creating user name:	WinNT
#	Creation time:	15. 06. 2019 21:21

#	Modifying user name:	WinNT
#	Modification time:	15. 06. 2019 21:21

#	Program:	/corina/corina34_cracker 3.40 0067  02.08.2006

@<TRIPOS>MOLECULE
ASD09116366
  69   73    0    0    0
SMALL
NO_CHARGES


@<TRIPOS>ATOM
   1 N1             0.0134     1.4118    -0.0285 N.2     
   2 N2             0.0217     0.0098     0.0488 N.pl3   
   3 C3             1.2654     1.8025    -0.0310 C.2     
   4 N4             2.0580     0.7267     0.0402 N.2     
   5 C5             1.3224    -0.3632     0.0891 C.2     
   6 N6             1.7943    -1.6597     0.1676 N.pl3   
   7 C7            -1.0912    -0.8327     0.0790 C.ar    
   8 N8             1.7006     3.1262    -0.0977 N.pl3   
   9 C9             3.0607     3.4217     0.0272 C.ar    
  10 C10            3.8740     2.6311     0.8295 C.ar    
  11 C11            3.6037     4.5031    -0.6551 C.ar    
  12 C12            4.9483     4.7920    -0.5297 C.ar    
  13 C13            5.7540     4.0061     0.2739 C.ar    
  14 C14            5.2178     2.9257     0.9503 C.ar    
  15 N15           -0.9844    -2.0862    -0.3356 N.ar    
  16 N16           -1.9799    -2.8995    -0.3378 N.ar    
  17 C17           -3.1804    -2.5277     0.0766 C.ar    
  18 C18           -3.3829    -1.2290     0.5523 C.ar    
  19 C19           -2.3162    -0.3552     0.5518 C.ar    
  20 C20           -4.3415    -3.4461     0.0244 C.ar    
  21 C21           -5.5317    -2.9968    -0.5498 C.ar    
  22 C22           -5.5876    -1.6181    -1.1484 C.3     
  23 C23           -5.6990    -0.5460    -0.0678 C.3     
  24 C24           -4.7311    -0.8301     1.0778 C.3     
  25 C25           -4.2607    -4.7352     0.5394 C.ar    
  26 C26           -5.3685    -5.5594     0.4961 C.ar    
  27 C27           -6.5522    -5.1032    -0.0550 C.ar    
  28 C28           -6.6342    -3.8236    -0.5763 C.ar    
  29 C29            7.2210     4.3241     0.4078 C.3     
  30 N30            7.4204     5.2461     1.5287 N.am    
  31 C31            7.5433     4.7664     2.7822 C.2     
  32 O32            7.5838     3.5692     2.9720 O.2     
  33 C33            7.4864     6.6895     1.2870 C.3     
  34 C34            6.1101     7.3111     1.5327 C.3     
  35 C35            6.1789     8.8186     1.2803 C.3     
  36 C36            7.6304     5.7175     3.9478 C.3     
  37 C37            4.8026     9.4402     1.5259 C.3     
  38 H38            2.7494    -1.8276     0.1910 H       
  39 H39            1.1705    -2.4018     0.1993 H       
  40 H40            1.0591     3.8416    -0.2308 H       
  41 H41            3.4558     1.7875     1.3583 H       
  42 H42            2.9751     5.1170    -1.2831 H       
  43 H43            5.3712     5.6323    -1.0601 H       
  44 H44            5.8498     2.3140     1.5771 H       
  45 H45           -2.4255     0.6625     0.8963 H       
  46 H46           -4.6824    -1.4450    -1.7304 H       
  47 H47           -6.4526    -1.5506    -1.8082 H       
  48 H48           -5.4659     0.4264    -0.5016 H       
  49 H49           -6.7180    -0.5307     0.3188 H       
  50 H50           -5.1298    -1.6377     1.6918 H       
  51 H51           -4.6267     0.0660     1.6894 H       
  52 H52           -3.3364    -5.0904     0.9707 H       
  53 H53           -5.3101    -6.5621     0.8931 H       
  54 H54           -7.4175    -5.7490    -0.0784 H       
  55 H55           -7.5618    -3.4733    -1.0045 H       
  56 H56            7.7769     3.4045     0.5904 H       
  57 H57            7.5777     4.7878    -0.5119 H       
  58 H58            8.2137     7.1383     1.9636 H       
  59 H59            7.7886     6.8718     0.2558 H       
  60 H60            5.3827     6.8623     0.8561 H       
  61 H61            5.8078     7.1288     2.5639 H       
  62 H62            6.9062     9.2674     1.9568 H       
  63 H63            6.4811     9.0009     0.2490 H       
  64 H64            7.6614     6.7427     3.5787 H       
  65 H65            6.7579     5.5882     4.5882 H       
  66 H66            8.5348     5.5097     4.5196 H       
  67 H67            4.0753     8.9914     0.8494 H       
  68 H68            4.5004     9.2578     2.5572 H       
  69 H69            4.8516    10.5141     1.3461 H       
@<TRIPOS>BOND
   1    1    2 1
   2    1    3 2
   3    2    7 1
   4    2    5 1
   5    3    4 1
   6    3    8 1
   7    4    5 2
   8    5    6 1
   9    6   38 1
  10    6   39 1
  11    7   15 ar
  12    7   19 ar
  13    8    9 1
  14    8   40 1
  15    9   10 ar
  16    9   11 ar
  17   10   14 ar
  18   10   41 1
  19   11   12 ar
  20   11   42 1
  21   12   13 ar
  22   12   43 1
  23   13   14 ar
  24   13   29 1
  25   14   44 1
  26   15   16 ar
  27   16   17 ar
  28   17   18 ar
  29   17   20 1
  30   18   19 ar
  31   18   24 1
  32   19   45 1
  33   20   21 ar
  34   20   25 ar
  35   21   22 1
  36   21   28 ar
  37   22   23 1
  38   22   46 1
  39   22   47 1
  40   23   24 1
  41   23   48 1
  42   23   49 1
  43   24   50 1
  44   24   51 1
  45   25   26 ar
  46   25   52 1
  47   26   27 ar
  48   26   53 1
  49   27   28 ar
  50   27   54 1
  51   28   55 1
  52   29   30 1
  53   29   56 1
  54   29   57 1
  55   30   31 am
  56   30   33 1
  57   31   32 2
  58   31   36 1
  59   33   34 1
  60   33   58 1
  61   33   59 1
  62   34   35 1
  63   34   60 1
  64   34   61 1
  65   35   37 1
  66   35   62 1
  67   35   63 1
  68   36   64 1
  69   36   65 1
  70   36   66 1
  71   37   67 1
  72   37   68 1
  73   37   69 1

#	End of record

