#	Name: ASD03091049
#	Creating user name:	WinNT
#	Creation time:	15. 06. 2019 20:29

#	Modifying user name:	WinNT
#	Modification time:	15. 06. 2019 20:29

#	Program:	/corina/corina34_cracker 3.40 0067  02.08.2006

@<TRIPOS>MOLECULE
ASD03091049
  55   60    0    0    0
SMALL
NO_CHARGES


@<TRIPOS>ATOM
   1 C1            -0.5298     1.5055     0.0407 C.3     
   2 N2            -0.3628     0.0504     0.0075 N.am    
   3 C3            -0.0850    -0.6223     1.1558 C.2     
   4 N4             0.0768    -1.9091     1.2081 N.2     
   5 C5            -0.0225    -2.6847     0.0989 C.ar    
   6 C6            -0.3091    -2.0719    -1.1412 C.ar    
   7 C7            -0.4920    -0.6130    -1.1651 C.2     
   8 C8             0.0422     0.1667     2.4334 C.3     
   9 O9            -0.7409    -0.0238    -2.2009 O.2     
  10 C10            0.1523    -4.0692     0.1563 C.ar    
  11 C11            0.0452    -4.8168    -0.9815 C.ar    
  12 C12           -0.2376    -4.2171    -2.2086 C.ar    
  13 C13           -0.4155    -2.8466    -2.2939 C.ar    
  14 N14           -0.3417    -5.0041    -3.3589 N.3     
  15 C15            0.1968    -4.2985    -4.5302 C.3     
  16 C16            0.9357    -5.2681    -5.4405 C.3     
  17 C17            0.0132    -6.1844    -6.2187 C.3     
  18 N18           -1.3999    -5.8485    -5.9928 N.3     
  19 C19           -1.8567    -6.4258    -4.7195 C.3     
  20 C20           -1.7323    -5.4107    -3.5940 C.3     
  21 C21           -1.6850    -4.4446    -6.1983 C.3     
  22 C22           -0.9294    -3.5550    -5.2247 C.3     
  23 C23           -1.9712     1.8448     0.4254 C.3     
  24 C24           -2.3192     3.3207     0.6296 C.3     
  25 C25           -2.8244     2.5800    -0.6102 C.3     
  26 C26           -0.2573    -0.5607     3.7457 C.3     
  27 C27            1.1849    -0.2031     3.3812 C.3     
  28 H28            0.1526     1.9328     0.7755 H       
  29 H29           -0.3094     1.9190    -0.9434 H       
  30 H30           -0.2359     1.2184     2.3662 H       
  31 H31            0.3721    -4.5479     1.0991 H       
  32 H32            0.1818    -5.8870    -0.9305 H       
  33 H33           -0.6345    -2.3831    -3.2445 H       
  34 H34            0.9111    -3.5548    -4.1768 H       
  35 H35            1.5366    -4.6953    -6.1468 H       
  36 H36            1.6033    -5.8786    -4.8325 H       
  37 H37            0.2351    -6.0933    -7.2820 H       
  38 H38            0.1884    -7.2141    -5.9069 H       
  39 H39           -2.8992    -6.7289    -4.8161 H       
  40 H40           -1.2498    -7.2999    -4.4833 H       
  41 H41           -2.1319    -5.8475    -2.6788 H       
  42 H42           -2.3200    -4.5284    -3.8478 H       
  43 H43           -1.4052    -4.1723    -7.2160 H       
  44 H44           -2.7548    -4.2789    -6.0713 H       
  45 H45           -1.6248    -3.1825    -4.4725 H       
  46 H46           -0.5120    -2.7082    -5.7694 H       
  47 H47           -2.4711     1.1168     1.0644 H       
  48 H48           -3.0482     3.5636     1.4026 H       
  49 H49           -1.5211     4.0499     0.4899 H       
  50 H50           -2.3587     2.8220    -1.5656 H       
  51 H51           -3.8858     2.3357    -0.6528 H       
  52 H52           -0.7322     0.0126     4.5419 H       
  53 H53           -0.5464    -1.6099     3.6849 H       
  54 H54            1.8447    -1.0170     3.0807 H       
  55 H55            1.6589     0.6055     3.9377 H       
@<TRIPOS>BOND
   1    1    2 1
   2    1   23 1
   3    1   28 1
   4    1   29 1
   5    2    3 1
   6    2    7 am
   7    3    4 2
   8    3    8 1
   9    4    5 1
  10    5    6 ar
  11    5   10 ar
  12    6    7 1
  13    6   13 ar
  14    7    9 2
  15    8   26 1
  16    8   27 1
  17    8   30 1
  18   10   11 ar
  19   10   31 1
  20   11   12 ar
  21   11   32 1
  22   12   13 ar
  23   12   14 1
  24   13   33 1
  25   14   15 1
  26   14   20 1
  27   15   16 1
  28   15   22 1
  29   15   34 1
  30   16   17 1
  31   16   35 1
  32   16   36 1
  33   17   18 1
  34   17   37 1
  35   17   38 1
  36   18   19 1
  37   18   21 1
  38   19   20 1
  39   19   39 1
  40   19   40 1
  41   20   41 1
  42   20   42 1
  43   21   22 1
  44   21   43 1
  45   21   44 1
  46   22   45 1
  47   22   46 1
  48   23   24 1
  49   23   25 1
  50   23   47 1
  51   24   25 1
  52   24   48 1
  53   24   49 1
  54   25   50 1
  55   25   51 1
  56   26   27 1
  57   26   52 1
  58   26   53 1
  59   27   54 1
  60   27   55 1

#	End of record

