#	Name: ASD01152192
#	Creating user name:	WinNT
#	Creation time:	15. 06. 2019 19:05

#	Modifying user name:	WinNT
#	Modification time:	15. 06. 2019 19:05

#	Program:	/corina/corina34_cracker 3.40 0067  02.08.2006

@<TRIPOS>MOLECULE
ASD01152192
  23   24    0    0    0
SMALL
NO_CHARGES


@<TRIPOS>ATOM
   1 C1             0.0808     1.3800    -0.4757 C.ar    
   2 C2             0.0996    -0.0007    -0.4818 C.ar    
   3 C3             1.2088    -0.6808    -0.0126 C.ar    
   4 C4             2.3020     0.0189     0.4641 C.ar    
   5 C5             2.2898     1.4000     0.4725 C.ar    
   6 C6             1.1777     2.0860     0.0020 C.ar    
   7 N7             1.1623     3.4855     0.0088 N.am    
   8 N8             0.0561     4.1615     0.5371 N.2     
   9 C9             0.0358     5.4660     0.5467 C.2     
  10 H10           -0.8124     5.9975     0.9523 H       
  11 C11            1.1804     6.1996    -0.0001 C.2     
  12 N12            2.2262     5.5092    -0.4997 N.am    
  13 O13            1.1872     7.4168    -0.0039 O.2     
  14 C14            2.2127     4.1631    -0.4874 C.2     
  15 O15            3.1605     3.5507    -0.9402 O.2     
  16 N16            3.4865    -0.7131     0.9662 N.pl3   
  17 O17            3.4978    -1.9310     0.9594 O.2     
  18 O18            4.4499    -0.0974     1.3862 O.2     
  19 H19           -0.7839     1.9105    -0.8461 H       
  20 H20           -0.7528    -0.5501    -0.8531 H       
  21 H21            1.2209    -1.7607    -0.0181 H       
  22 H22            3.1441     1.9459     0.8449 H       
  23 H23            2.9898     5.9830    -0.8649 H       
@<TRIPOS>BOND
   1    1    2 ar
   2    1    6 ar
   3    1   19 1
   4    2    3 ar
   5    2   20 1
   6    3    4 ar
   7    3   21 1
   8    4    5 ar
   9    4   16 1
  10    5    6 ar
  11    5   22 1
  12    6    7 1
  13    7    8 1
  14    7   14 am
  15    8    9 2
  16    9   10 1
  17    9   11 1
  18   11   12 am
  19   11   13 2
  20   12   14 am
  21   12   23 1
  22   14   15 2
  23   16   17 2
  24   16   18 2

#	End of record

