#	Name: ASD01910814
#	Creating user name:	WinNT
#	Creation time:	15. 06. 2019 19:56

#	Modifying user name:	WinNT
#	Modification time:	15. 06. 2019 19:56

#	Program:	/corina/corina34_cracker 3.40 0067  02.08.2006

@<TRIPOS>MOLECULE
ASD01910814
  41   42    0    0    0
SMALL
NO_CHARGES


@<TRIPOS>ATOM
   1 N1            -0.0169     1.3965     0.0097 N.2     
   2 N2             0.0021    -0.0041     0.0020 N.pl3   
   3 C3             1.2284     1.8226     0.0001 C.2     
   4 C4             2.0722     0.6950    -0.0140 C.2     
   5 C5             1.2909    -0.4070    -0.0125 C.2     
   6 C6             1.7727    -1.8348    -0.0240 C.3     
   7 C7             1.6660     3.2408     0.0028 C.ar    
   8 C8             3.0183     3.5542    -0.1139 C.ar    
   9 C9             3.4240     4.8741    -0.1113 C.ar    
  10 C10            2.4899     5.8881     0.0072 C.ar    
  11 C11            1.1386     5.5824     0.1240 C.ar    
  12 C12            0.7248     4.2616     0.1163 C.ar    
  13 C13           -1.1724    -0.8798     0.0090 C.3     
  14 C14           -1.5888    -1.1729    -1.4094 C.2     
  15 O15           -2.6491    -1.9606    -1.6484 O.3     
  16 O16           -0.9682    -0.6990    -2.3314 O.2     
  17 C17           -2.9926    -2.1997    -3.0388 C.3     
  18 F18            2.8918     7.1779     0.0097 F       
  19 C19            3.0475    -1.9361    -0.8639 C.3     
  20 C20            2.0685    -2.2848     1.4081 C.3     
  21 O21            0.2234     6.5809     0.2411 O.3     
  22 C22           -1.1474     6.1942     0.3573 C.3     
  23 H23            3.1521     0.7089    -0.0242 H       
  24 H24            1.0023    -2.4748    -0.4541 H       
  25 H25            3.7495     2.7648    -0.2061 H       
  26 H26            4.4728     5.1156    -0.2015 H       
  27 H27           -0.3245     4.0227     0.2066 H       
  28 H28           -0.9267    -1.8130     0.5158 H       
  29 H29           -1.9906    -0.3861     0.5332 H       
  30 H30           -2.1530    -2.6777    -3.5434 H       
  31 H31           -3.8657    -2.8500    -3.0907 H       
  32 H32           -3.2169    -1.2507    -3.5260 H       
  33 H33            3.3960    -2.9689    -0.8723 H       
  34 H34            2.8368    -1.6155    -1.8842 H       
  35 H35            3.8179    -1.2961    -0.4338 H       
  36 H36            1.1603    -2.2127     2.0065 H       
  37 H37            2.4170    -3.3176     1.3998 H       
  38 H38            2.8389    -1.6448     1.8383 H       
  39 H39           -1.7700     7.0847     0.4436 H       
  40 H40           -1.4417     5.6293    -0.5273 H       
  41 H41           -1.2759     5.5736     1.2441 H       
@<TRIPOS>BOND
   1    1    2 1
   2    1    3 2
   3    2   13 1
   4    2    5 1
   5    3    4 1
   6    3    7 1
   7    4    5 2
   8    4   23 1
   9    5    6 1
  10    6   19 1
  11    6   20 1
  12    6   24 1
  13    7    8 ar
  14    7   12 ar
  15    8    9 ar
  16    8   25 1
  17    9   10 ar
  18    9   26 1
  19   10   11 ar
  20   10   18 1
  21   11   12 ar
  22   11   21 1
  23   12   27 1
  24   13   14 1
  25   13   28 1
  26   13   29 1
  27   14   15 1
  28   14   16 2
  29   15   17 1
  30   17   30 1
  31   17   31 1
  32   17   32 1
  33   19   33 1
  34   19   34 1
  35   19   35 1
  36   20   36 1
  37   20   37 1
  38   20   38 1
  39   21   22 1
  40   22   39 1
  41   22   40 1
  42   22   41 1

#	End of record

