#	Name: ASD09740014
#	Creating user name:	WinNT
#	Creation time:	15. 06. 2019 21:22

#	Modifying user name:	WinNT
#	Modification time:	15. 06. 2019 21:22

#	Program:	/corina/corina34_cracker 3.40 0067  02.08.2006

@<TRIPOS>MOLECULE
ASD09740014
  40   42    0    0    0
SMALL
NO_CHARGES


@<TRIPOS>ATOM
   1 C1            -0.0162     1.3449     0.0094 C.2     
   2 O2             0.0021    -0.0041     0.0020 O.3     
   3 N3             1.2311     1.7558    -0.0003 N.2     
   4 N4             2.0166     0.7369    -0.0132 N.2     
   5 C5             1.3006    -0.3660    -0.0123 C.2     
   6 C6             1.8228    -1.7471    -0.0243 C.ar    
   7 C7             3.2013    -1.9743    -0.0387 C.ar    
   8 C8             0.9402    -2.8290    -0.0154 C.ar    
   9 C9             1.4297    -4.1184    -0.0261 C.ar    
  10 C10            2.7982    -4.3439    -0.0453 C.ar    
  11 C11            3.6849    -3.2686    -0.0494 C.ar    
  12 C12           -1.2191     2.2028     0.0201 C.ar    
  13 C13           -1.1077     3.5986     0.0271 C.ar    
  14 C14           -2.2572     4.3609     0.0365 C.ar    
  15 N15           -3.4476     3.7921     0.0393 N.ar    
  16 C16           -3.5977     2.4813     0.0329 C.ar    
  17 C17           -2.5026     1.6428     0.0175 C.ar    
  18 O18            3.2756    -5.6164    -0.0553 O.3     
  19 C19            3.0319    -8.0208    -0.0588 C.3     
  20 C20            2.3115    -6.6711    -0.0452 C.3     
  21 O21            5.0260    -3.4933    -0.0682 O.3     
  22 C22            7.3389    -2.7930    -0.0932 C.3     
  23 C23            5.8762    -2.3447    -0.0713 C.3     
  24 H24            3.8873    -1.1401    -0.0419 H       
  25 H25           -0.1258    -2.6562     0.0003 H       
  26 H26            0.7460    -4.9543    -0.0192 H       
  27 H27           -0.1365     4.0711     0.0256 H       
  28 H28           -2.1817     5.4383     0.0420 H       
  29 H29           -4.5918     2.0590     0.0355 H       
  30 H30           -2.6330     0.5707     0.0124 H       
  31 H31            3.6442    -8.0968    -0.9574 H       
  32 H32            3.6683    -8.1018     0.8224 H       
  33 H33            2.2965    -8.8253    -0.0511 H       
  34 H34            1.6992    -6.5950     0.8533 H       
  35 H35            1.6751    -6.5900    -0.9264 H       
  36 H36            7.9874    -1.9169    -0.0956 H       
  37 H37            7.5471    -3.3967     0.7901 H       
  38 H38            7.5243    -3.3847    -0.9897 H       
  39 H39            5.6680    -1.7410    -0.9546 H       
  40 H40            5.6909    -1.7530     0.8251 H       
@<TRIPOS>BOND
   1    1    2 1
   2    1    3 2
   3    1   12 1
   4    2    5 1
   5    3    4 1
   6    4    5 2
   7    5    6 1
   8    6    7 ar
   9    6    8 ar
  10    7   11 ar
  11    7   24 1
  12    8    9 ar
  13    8   25 1
  14    9   10 ar
  15    9   26 1
  16   10   11 ar
  17   10   18 1
  18   11   21 1
  19   12   13 ar
  20   12   17 ar
  21   13   14 ar
  22   13   27 1
  23   14   15 ar
  24   14   28 1
  25   15   16 ar
  26   16   17 ar
  27   16   29 1
  28   17   30 1
  29   18   20 1
  30   19   20 1
  31   19   31 1
  32   19   32 1
  33   19   33 1
  34   20   34 1
  35   20   35 1
  36   21   23 1
  37   22   23 1
  38   22   36 1
  39   22   37 1
  40   22   38 1
  41   23   39 1
  42   23   40 1

#	End of record

