#	Name: ASD02198574
#	Creating user name:	WinNT
#	Creation time:	15. 06. 2019 20:19

#	Modifying user name:	WinNT
#	Modification time:	15. 06. 2019 20:19

#	Program:	/corina/corina34_cracker 3.40 0067  02.08.2006

@<TRIPOS>MOLECULE
ASD02198574
  49   53    0    0    0
SMALL
NO_CHARGES


@<TRIPOS>ATOM
   1 C1             0.0072     1.5096     0.1333 C.2     
   2 C2             0.0744     0.1697    -0.0950 C.2     
   3 N3            -1.0521    -0.5606    -0.2643 N.pl3   
   4 N4            -2.2301    -0.0571    -0.2230 N.2     
   5 C5            -2.4376     1.2258    -0.0099 C.2     
   6 C6            -1.2791     2.1066     0.1921 C.2     
   7 C7            -0.9246    -1.9341    -0.4965 C.ar    
   8 C8            -1.3846    -3.8650    -1.8482 C.ar    
   9 C9            -0.6718    -4.6546    -0.9562 C.ar    
  10 C10           -0.0906    -4.0823     0.1682 C.ar    
  11 C11           -0.2167    -2.7276     0.3977 C.ar    
  12 C12           -3.8108     1.7686     0.0306 C.2     
  13 N13           -4.3724     2.4812     1.0526 N.pl3   
  14 N14           -5.6843     2.7997     0.6801 N.2     
  15 C15           -5.9152     2.3069    -0.5106 C.2     
  16 C16           -4.7646     1.6569    -0.9571 C.2     
  17 C17           -3.7478     2.8305     2.2566 C.ar    
  18 C18           -2.9537     1.9059     2.9223 C.ar    
  19 O19           -1.4169     3.3046     0.3935 O.2     
  20 C20           -3.9167     4.1038     2.7843 C.ar    
  21 C21           -3.2991     4.4453     3.9715 C.ar    
  22 C22           -2.5132     3.5207     4.6346 C.ar    
  23 C23           -2.3388     2.2535     4.1091 C.ar    
  24 C24           -1.5116    -2.5077    -1.6204 C.ar    
  25 F25           -2.2055    -1.7386    -2.4877 F       
  26 O26            1.1346     2.2508     0.3049 O.3     
  27 C27            2.3829     1.5588     0.2343 C.3     
  28 N28           -0.5430    -6.0316    -1.1875 N.pl3   
  29 C29            0.1269    -6.9313    -0.3992 C.2     
  30 C30           -1.0633    -6.7271    -2.2318 C.2     
  31 N31           -0.7308    -7.9825    -2.1020 N.2     
  32 C32           -0.0009    -8.1359    -0.9873 C.2     
  33 H33            1.0378    -0.3163    -0.1420 H       
  34 H34           -1.8359    -4.3105    -2.7224 H       
  35 H35            0.4634    -4.6978     0.8616 H       
  36 H36            0.2354    -2.2838     1.2724 H       
  37 H37           -6.8420     2.3930    -1.0584 H       
  38 H38           -4.6452     1.1511    -1.9039 H       
  39 H39           -2.8174     0.9160     2.5125 H       
  40 H40           -4.5301     4.8265     2.2667 H       
  41 H41           -3.4298     5.4355     4.3822 H       
  42 H42           -2.0310     3.7902     5.5627 H       
  43 H43           -1.7247     1.5335     4.6295 H       
  44 H44            2.4851     1.0929    -0.7457 H       
  45 H45            3.1989     2.2649     0.3878 H       
  46 H46            2.4168     0.7908     1.0071 H       
  47 H47            0.6556    -6.7153     0.5174 H       
  48 H48           -1.6533    -6.3109    -3.0350 H       
  49 H49            0.4134    -9.0650    -0.6243 H       
@<TRIPOS>BOND
   1    1    2 2
   2    1   26 1
   3    1    6 1
   4    2    3 1
   5    2   33 1
   6    3    4 1
   7    3    7 1
   8    4    5 2
   9    5    6 1
  10    5   12 1
  11    6   19 2
  12    7   24 ar
  13    7   11 ar
  14    8    9 ar
  15    8   24 ar
  16    8   34 1
  17    9   10 ar
  18    9   28 1
  19   10   11 ar
  20   10   35 1
  21   11   36 1
  22   12   13 1
  23   12   16 2
  24   13   14 1
  25   13   17 1
  26   14   15 2
  27   15   16 1
  28   15   37 1
  29   16   38 1
  30   17   20 ar
  31   17   18 ar
  32   18   23 ar
  33   18   39 1
  34   20   21 ar
  35   20   40 1
  36   21   22 ar
  37   21   41 1
  38   22   23 ar
  39   22   42 1
  40   23   43 1
  41   24   25 1
  42   26   27 1
  43   27   44 1
  44   27   45 1
  45   27   46 1
  46   28   29 1
  47   28   30 1
  48   29   32 2
  49   29   47 1
  50   30   31 2
  51   30   48 1
  52   31   32 1
  53   32   49 1

#	End of record

