#	Name: ASD03912013
#	Creating user name:	WinNT
#	Creation time:	15. 06. 2019 20:47

#	Modifying user name:	WinNT
#	Modification time:	15. 06. 2019 20:47

#	Program:	/corina/corina34_cracker 3.40 0067  02.08.2006

@<TRIPOS>MOLECULE
ASD03912013
  54   55    0    0    0
SMALL
NO_CHARGES


@<TRIPOS>ATOM
   1 C1            -1.9405    -0.5981    -1.2148 C.ar    
   2 C2            -0.8223    -0.2676    -0.4714 C.ar    
   3 C3            -0.8487     0.8268     0.3734 C.ar    
   4 C4            -1.9930     1.5932     0.4776 C.ar    
   5 C5            -3.1176     1.2639    -0.2676 C.ar    
   6 C6            -3.0858     0.1678    -1.1197 C.ar    
   7 C7             0.3722     1.1834     1.1817 C.3     
   8 N8            -4.2785     2.0382    -0.1643 N.am    
   9 C9            -4.1862     3.3752    -0.0208 C.2     
  10 C10           -5.4335     4.2209    -0.0215 C.3     
  11 O11           -3.0993     3.8976     0.1089 O.2     
  12 C12           -5.0580     5.6699     0.1534 C.ar    
  13 C13           -4.8028     6.4553    -0.9555 C.ar    
  14 C14           -4.4583     7.7839    -0.7979 C.ar    
  15 C15           -4.3687     8.3298     0.4743 C.ar    
  16 C16           -4.6252     7.5396     1.5853 C.ar    
  17 C17           -4.9748     6.2130     1.4221 C.ar    
  18 O18           -4.0296     9.6363     0.6320 O.3     
  19 C19           -3.6603    10.3573    -0.5452 C.3     
  20 C20           -1.9073    -1.7917    -2.1342 C.3     
  21 C21           -4.8888    10.9746    -1.1623 C.2     
  22 O22           -5.9548    10.8904    -0.5997 O.2     
  23 O23           -4.7988    11.6181    -2.3369 O.3     
  24 C24           -2.6656    11.4600    -0.1769 C.3     
  25 C25           -1.3694    10.8277     0.3338 C.3     
  26 C26           -0.3747    11.9304     0.7022 C.3     
  27 C27            0.9216    11.2981     1.2129 C.3     
  28 H28            0.0735    -0.8657    -0.5506 H       
  29 H29           -2.0132     2.4474     1.1381 H       
  30 H30           -3.9587    -0.0907    -1.7008 H       
  31 H31            0.9986     1.8687     0.6106 H       
  32 H32            0.0652     1.6614     2.1120 H       
  33 H33            0.9359     0.2781     1.4071 H       
  34 H34           -5.1497     1.6128    -0.1960 H       
  35 H35           -5.9585     4.0933    -0.9681 H       
  36 H36           -6.0822     3.9123     0.7983 H       
  37 H37           -4.8724     6.0298    -1.9457 H       
  38 H38           -4.2587     8.3969    -1.6644 H       
  39 H39           -4.5561     7.9622     2.5768 H       
  40 H40           -5.1746     5.5975     2.2867 H       
  41 H41           -3.1987     9.6753    -1.2592 H       
  42 H42           -2.2313    -2.6787    -1.5899 H       
  43 H43           -2.5753    -1.6189    -2.9781 H       
  44 H44           -0.8912    -1.9406    -2.4997 H       
  45 H45           -5.6137    11.9976    -2.6931 H       
  46 H46           -2.4520    12.0657    -1.0576 H       
  47 H47           -3.0940    12.0903     0.6024 H       
  48 H48           -1.5829    10.2221     1.2145 H       
  49 H49           -0.9409    10.1974    -0.4454 H       
  50 H50           -0.1611    12.5361    -0.1785 H       
  51 H51           -0.8031    12.5607     1.4814 H       
  52 H52            0.7080    10.6924     2.0936 H       
  53 H53            1.3500    10.6678     0.4336 H       
  54 H54            1.6302    12.0837     1.4753 H       
@<TRIPOS>BOND
   1    1    2 ar
   2    1   20 1
   3    1    6 ar
   4    2    3 ar
   5    2   28 1
   6    3    4 ar
   7    3    7 1
   8    4    5 ar
   9    4   29 1
  10    5    6 ar
  11    5    8 1
  12    6   30 1
  13    7   31 1
  14    7   32 1
  15    7   33 1
  16    8    9 am
  17    8   34 1
  18    9   10 1
  19    9   11 2
  20   10   12 1
  21   10   35 1
  22   10   36 1
  23   12   13 ar
  24   12   17 ar
  25   13   14 ar
  26   13   37 1
  27   14   15 ar
  28   14   38 1
  29   15   16 ar
  30   15   18 1
  31   16   17 ar
  32   16   39 1
  33   17   40 1
  34   18   19 1
  35   19   21 1
  36   19   24 1
  37   19   41 1
  38   20   42 1
  39   20   43 1
  40   20   44 1
  41   21   22 2
  42   21   23 1
  43   23   45 1
  44   24   25 1
  45   24   46 1
  46   24   47 1
  47   25   26 1
  48   25   48 1
  49   25   49 1
  50   26   27 1
  51   26   50 1
  52   26   51 1
  53   27   52 1
  54   27   53 1
  55   27   54 1

#	End of record

