#	Name: ASD01001206
#	Creating user name:	WinNT
#	Creation time:	15. 06. 2019 18:55

#	Modifying user name:	WinNT
#	Modification time:	15. 06. 2019 18:55

#	Program:	/corina/corina34_cracker 3.40 0067  02.08.2006

@<TRIPOS>MOLECULE
ASD01001206
  69   72    0    0    0
SMALL
NO_CHARGES


@<TRIPOS>ATOM
   1 C1             0.1091     1.8200    -0.2167 C.3     
   2 C2            -0.0934     0.3410     0.0009 C.ar    
   3 C3            -0.3482     2.2076    -1.6208 C.3     
   4 C4            -0.1951    -0.5383    -1.0659 C.ar    
   5 C5            -0.1767    -0.1396     1.2960 C.ar    
   6 C6             0.3316     1.2918    -2.6425 C.3     
   7 C7            -0.0079     3.6668    -1.9117 C.3     
   8 C8            -0.3743    -1.8973    -0.8301 C.ar    
   9 N9            -0.1279    -0.0811    -2.3867 N.pl3   
  10 C10           -0.0547     1.7081    -4.0384 C.ar    
  11 C11            1.4881     3.9003    -1.6816 C.3     
  12 C12           -0.4546    -2.3693     0.4648 C.ar    
  13 C13           -0.3566    -1.4901     1.5274 C.ar    
  14 C14            1.8356     3.4933    -0.2463 C.3     
  15 C15            3.3340     3.6896    -0.0074 C.3     
  16 N16            3.6657     3.2990     1.3693 N.3     
  17 O17            1.4978     2.1192    -0.0557 O.3     
  18 C18            0.8107     2.4758    -4.7951 C.ar    
  19 C19            0.4563     2.8577    -6.0755 C.ar    
  20 C20           -0.7632     2.4715    -6.5994 C.ar    
  21 C21           -1.6282     1.7030    -5.8431 C.ar    
  22 C22           -1.2720     1.3174    -4.5642 C.ar    
  23 C23            5.1205     3.2469     1.5658 C.3     
  24 C24            5.4346     2.4752     2.8491 C.3     
  25 O25            5.0018     1.1206     2.7083 O.3     
  26 C26           -0.4461    -2.0055     2.9407 C.3     
  27 C27           -0.6438    -3.5225     2.9187 C.3     
  28 C28            0.8458    -1.6703     3.6886 C.3     
  29 C29           -1.6313    -1.3470     3.6496 C.3     
  30 C30            3.4585     5.6442     2.0432 C.3     
  31 C31            3.0355     4.2040     2.3397 C.3     
  32 H32           -0.4701     2.3777     0.5193 H       
  33 H33           -1.4265     2.0685    -1.6979 H       
  34 H34           -0.1005     0.5434     2.1292 H       
  35 H35            1.4139     1.3470    -2.5258 H       
  36 H36           -0.2563     3.8980    -2.9475 H       
  37 H37           -0.5825     4.3128    -1.2480 H       
  38 H38           -0.4511    -2.5836    -1.6604 H       
  39 H39           -0.3808    -0.6609    -3.1220 H       
  40 H40            2.0643     3.2961    -2.3824 H       
  41 H41            1.7202     4.9551    -1.8287 H       
  42 H42           -0.5942    -3.4245     0.6477 H       
  43 H43            1.2711     4.1090     0.4539 H       
  44 H44            3.8975     3.0714    -0.7062 H       
  45 H45            3.5920     4.7376    -0.1598 H       
  46 H46            1.7635     2.7776    -4.3858 H       
  47 H47            1.1321     3.4582    -6.6664 H       
  48 H48           -1.0403     2.7705    -7.5995 H       
  49 H49           -2.5811     1.4015    -6.2523 H       
  50 H50           -1.9477     0.7170    -3.9733 H       
  51 H51            5.5840     2.7442     0.7169 H       
  52 H52            5.5128     4.2606     1.6463 H       
  53 H53            6.5089     2.4962     3.0320 H       
  54 H54            4.9141     2.9376     3.6877 H       
  55 H55            5.1696     0.5712     3.4862 H       
  56 H56            0.2006    -3.9917     2.4137 H       
  57 H57           -0.7085    -3.8954     3.9409 H       
  58 H58           -1.5642    -3.7613     2.3859 H       
  59 H59            0.9867    -0.5896     3.7043 H       
  60 H60            0.7811    -2.0431     4.7108 H       
  61 H61            1.6902    -2.1395     3.1836 H       
  62 H62           -2.5517    -1.5858     3.1168 H       
  63 H63           -1.6961    -1.7198     4.6718 H       
  64 H64           -1.4905    -0.2663     3.6653 H       
  65 H65            4.5451     5.7196     2.0845 H       
  66 H66            3.1121     5.9273     1.0492 H       
  67 H67            3.0195     6.3118     2.7847 H       
  68 H68            1.9514     4.1207     2.2634 H       
  69 H69            3.3507     3.9329     3.3473 H       
@<TRIPOS>BOND
   1    1    2 1
   2    1   17 1
   3    1    3 1
   4    1   32 1
   5    2    4 ar
   6    2    5 ar
   7    3    7 1
   8    3    6 1
   9    3   33 1
  10    4    8 ar
  11    4    9 1
  12    5   13 ar
  13    5   34 1
  14    6    9 1
  15    6   10 1
  16    6   35 1
  17    7   11 1
  18    7   36 1
  19    7   37 1
  20    8   12 ar
  21    8   38 1
  22    9   39 1
  23   10   18 ar
  24   10   22 ar
  25   11   14 1
  26   11   40 1
  27   11   41 1
  28   12   13 ar
  29   12   42 1
  30   13   26 1
  31   14   15 1
  32   14   17 1
  33   14   43 1
  34   15   16 1
  35   15   44 1
  36   15   45 1
  37   16   23 1
  38   16   31 1
  39   18   19 ar
  40   18   46 1
  41   19   20 ar
  42   19   47 1
  43   20   21 ar
  44   20   48 1
  45   21   22 ar
  46   21   49 1
  47   22   50 1
  48   23   24 1
  49   23   51 1
  50   23   52 1
  51   24   25 1
  52   24   53 1
  53   24   54 1
  54   25   55 1
  55   26   27 1
  56   26   28 1
  57   26   29 1
  58   27   56 1
  59   27   57 1
  60   27   58 1
  61   28   59 1
  62   28   60 1
  63   28   61 1
  64   29   62 1
  65   29   63 1
  66   29   64 1
  67   30   31 1
  68   30   65 1
  69   30   66 1
  70   30   67 1
  71   31   68 1
  72   31   69 1

#	End of record

