#	Name: ASD01148430
#	Creating user name:	WinNT
#	Creation time:	15. 06. 2019 19:02

#	Modifying user name:	WinNT
#	Modification time:	15. 06. 2019 19:02

#	Program:	/corina/corina34_cracker 3.40 0067  02.08.2006

@<TRIPOS>MOLECULE
ASD01148430
  52   55    0    0    0
SMALL
NO_CHARGES


@<TRIPOS>ATOM
   1 C1             0.3637     1.8427     0.0682 C.ar    
   2 C2             0.4622     0.4639    -0.0071 C.ar    
   3 C3            -0.6834    -0.3070    -0.0940 C.ar    
   4 C4            -1.9251     0.2996    -0.1057 C.ar    
   5 C5            -2.0235     1.6767    -0.0306 C.ar    
   6 C6            -0.8804     2.4479     0.0617 C.ar    
   7 C7            -3.3782     2.3367    -0.0439 C.3     
   8 O8            -4.3700     1.4921     0.5745 O.3     
   9 C9            -3.3993     3.5768     0.8814 C.3     
  10 C10           -3.9255     3.0066     2.1848 C.2     
  11 N11           -4.4452     1.8505     1.9402 N.2     
  12 C12           -3.8551     3.6610     3.5060 C.ar    
  13 C13           -4.3815     3.0216     4.6315 C.ar    
  14 C14           -3.2569     4.9172     3.6324 C.ar    
  15 C15           -3.1913     5.5275     4.8647 C.ar    
  16 C16           -3.7223     4.8906     5.9887 C.ar    
  17 C17           -4.3158     3.6320     5.8634 C.ar    
  18 C18           -3.6510     5.5455     7.3117 C.2     
  19 O19           -4.2093     5.0450     8.2685 O.2     
  20 N20           -2.9668     6.6975     7.4574 N.am    
  21 C21           -4.8891     2.9452     7.0761 C.3     
  22 C22           -3.7886     2.7094    -1.4699 C.3     
  23 F23           -3.8275     1.5559    -2.2606 F       
  24 F24           -5.0547     3.3044    -1.4504 F       
  25 F25           -2.8589     3.6089    -2.0027 F       
  26 Cl26           2.0223    -0.2975     0.0071 Cl      
  27 Cl27           1.8001     2.8114     0.1780 Cl      
  28 C28           -2.8961     7.3466     8.7688 C.3     
  29 C29           -2.0786     8.6081     8.6615 C.2     
  30 C30           -2.6276     9.8111     8.4680 C.2     
  31 S31           -1.3262    10.9971     8.4036 S.3     
  32 C32           -0.1732     9.7575     8.6432 C.2     
  33 N33           -0.7643     8.6161     8.7562 N.2     
  34 C34           -0.5771    -1.8080    -0.1765 C.3     
  35 F35           -1.8590    -2.3625    -0.2561 F       
  36 F36            0.1555    -2.1618    -1.3146 F       
  37 F37            0.0708    -2.2930     0.9646 F       
  38 H38           -2.8192    -0.3025    -0.1740 H       
  39 H39           -0.9580     3.5235     0.1204 H       
  40 H40           -2.3946     3.9788     1.0125 H       
  41 H41           -4.0743     4.3388     0.4918 H       
  42 H42           -4.8403     2.0487     4.5347 H       
  43 H43           -2.8457     5.4094     2.7634 H       
  44 H44           -2.7290     6.4986     4.9625 H       
  45 H45           -2.5213     7.0968     6.6939 H       
  46 H46           -5.8965     3.3176     7.2622 H       
  47 H47           -4.9257     1.8699     6.9013 H       
  48 H48           -4.2598     3.1514     7.9418 H       
  49 H49           -3.9025     7.5935     9.1068 H       
  50 H50           -2.4282     6.6703     9.4842 H       
  51 H51           -3.6827    10.0194     8.3687 H       
  52 H52            0.8948     9.9086     8.6969 H       
@<TRIPOS>BOND
   1    1    2 ar
   2    1   27 1
   3    1    6 ar
   4    2    3 ar
   5    2   26 1
   6    3    4 ar
   7    3   34 1
   8    4    5 ar
   9    4   38 1
  10    5    6 ar
  11    5    7 1
  12    6   39 1
  13    7    8 1
  14    7    9 1
  15    7   22 1
  16    8   11 1
  17    9   10 1
  18    9   40 1
  19    9   41 1
  20   10   11 2
  21   10   12 1
  22   12   13 ar
  23   12   14 ar
  24   13   17 ar
  25   13   42 1
  26   14   15 ar
  27   14   43 1
  28   15   16 ar
  29   15   44 1
  30   16   17 ar
  31   16   18 1
  32   17   21 1
  33   18   19 2
  34   18   20 am
  35   20   28 1
  36   20   45 1
  37   21   46 1
  38   21   47 1
  39   21   48 1
  40   22   23 1
  41   22   24 1
  42   22   25 1
  43   28   29 1
  44   28   49 1
  45   28   50 1
  46   29   30 2
  47   29   33 1
  48   30   31 1
  49   30   51 1
  50   31   32 1
  51   32   33 2
  52   32   52 1
  53   34   35 1
  54   34   36 1
  55   34   37 1

#	End of record

