#	Name: ASD01840133
#	Creating user name:	WinNT
#	Creation time:	15. 06. 2019 19:37

#	Modifying user name:	WinNT
#	Modification time:	15. 06. 2019 19:37

#	Program:	/corina/corina34_cracker 3.40 0067  02.08.2006

@<TRIPOS>MOLECULE
ASD01840133
  46   49    0    0    0
SMALL
NO_CHARGES


@<TRIPOS>ATOM
   1 C1             0.9325     0.1498     3.5838 C.ar    
   2 C2             1.2484    -1.1772     3.8649 C.ar    
   3 N3             2.4352    -1.6734     3.6095 N.ar    
   4 C4             3.3998    -0.9259     3.0653 C.ar    
   5 C5             3.1452     0.4336     2.7533 C.ar    
   6 C6             1.8719     0.9703     3.0266 C.ar    
   7 C7             1.5544     2.4095     2.7121 C.3     
   8 C8             0.1985    -2.0665     4.4795 C.3     
   9 C9             4.6697    -1.4705     2.7966 C.ar    
  10 C10            5.6388    -0.6978     2.2443 C.ar    
  11 C11            5.3966     0.6517     1.9315 C.ar    
  12 C12            4.1575     1.2181     2.1831 C.ar    
  13 C13            6.4701     1.4706     1.3311 C.2     
  14 N14            7.6771     0.9237     1.0847 N.am    
  15 O15            6.2646     2.6375     1.0593 O.2     
  16 C16            8.7414     1.7356     0.4894 C.3     
  17 C17           10.1595     1.2308     0.8117 C.3     
  18 C18            9.0517     1.3735    -0.9742 C.3     
  19 N19           10.4769     1.5192    -0.6044 N.3     
  20 C20           11.2470     0.4952    -1.1638 C.ar    
  21 C21           10.7476    -0.7991    -1.2192 C.ar    
  22 C22           11.5113    -1.8104    -1.7736 C.ar    
  23 C23           12.7744    -1.5312    -2.2730 C.ar    
  24 C24           13.2726    -0.2410    -2.2178 C.ar    
  25 C25           12.5104     0.7725    -1.6700 C.ar    
  26 F26           13.5199    -2.5198    -2.8135 F       
  27 F27           11.0267    -3.0703    -1.8283 F       
  28 H28           -0.0552     0.5284     3.8018 H       
  29 H29            1.1607     2.4816     1.6982 H       
  30 H30            0.8110     2.7802     3.4178 H       
  31 H31            2.4620     3.0078     2.7927 H       
  32 H32           -0.3716    -2.5552     3.6894 H       
  33 H33            0.6802    -2.8219     5.1003 H       
  34 H34           -0.4726    -1.4657     5.0934 H       
  35 H35            4.8732    -2.5050     3.0307 H       
  36 H36            6.6099    -1.1251     2.0424 H       
  37 H37            3.9731     2.2546     1.9423 H       
  38 H38            7.8410    -0.0074     1.3016 H       
  39 H39            8.6066     2.8037     0.6598 H       
  40 H40           10.6991     1.8598     1.5197 H       
  41 H41           10.2017     0.1713     1.0642 H       
  42 H42            8.7700     0.3557    -1.2440 H       
  43 H43            8.7064     2.1164    -1.6931 H       
  44 H44            9.7640    -1.0161    -0.8295 H       
  45 H45           14.2566    -0.0256    -2.6073 H       
  46 H46           12.9001     1.7789    -1.6280 H       
@<TRIPOS>BOND
   1    1    2 ar
   2    1    6 ar
   3    1   28 1
   4    2    3 ar
   5    2    8 1
   6    3    4 ar
   7    4    5 ar
   8    4    9 ar
   9    5    6 ar
  10    5   12 ar
  11    6    7 1
  12    7   29 1
  13    7   30 1
  14    7   31 1
  15    8   32 1
  16    8   33 1
  17    8   34 1
  18    9   10 ar
  19    9   35 1
  20   10   11 ar
  21   10   36 1
  22   11   12 ar
  23   11   13 1
  24   12   37 1
  25   13   14 am
  26   13   15 2
  27   14   16 1
  28   14   38 1
  29   16   17 1
  30   16   18 1
  31   16   39 1
  32   17   19 1
  33   17   40 1
  34   17   41 1
  35   18   19 1
  36   18   42 1
  37   18   43 1
  38   19   20 1
  39   20   21 ar
  40   20   25 ar
  41   21   22 ar
  42   21   44 1
  43   22   23 ar
  44   22   27 1
  45   23   24 ar
  46   23   26 1
  47   24   25 ar
  48   24   45 1
  49   25   46 1

#	End of record

