#	Name: ASD03930208
#	Creating user name:	WinNT
#	Creation time:	15. 06. 2019 20:47

#	Modifying user name:	WinNT
#	Modification time:	15. 06. 2019 20:47

#	Program:	/corina/corina34_cracker 3.40 0067  02.08.2006

@<TRIPOS>MOLECULE
ASD03930208
  46   47    0    0    0
SMALL
NO_CHARGES


@<TRIPOS>ATOM
   1 C1             0.2040     1.0188     0.4162 C.ar    
   2 C2             0.3161    -0.3568     0.6359 C.ar    
   3 C3             1.5791    -0.9443     0.7503 C.ar    
   4 C4             2.7107    -0.1675     0.6463 C.ar    
   5 C5             2.5974     1.2056     0.4273 C.ar    
   6 C6             1.3373     1.7932     0.3126 C.ar    
   7 C7             3.8172     2.0411     0.3160 C.ar    
   8 C8             3.7077     3.4135     0.0972 C.ar    
   9 C9             4.8466     4.1862    -0.0050 C.ar    
  10 C10            6.0950     3.6013     0.1086 C.ar    
  11 C11            6.2098     2.2399     0.3257 C.ar    
  12 C12            5.0779     1.4581     0.4355 C.ar    
  13 C13            7.3348     4.4504    -0.0050 C.3     
  14 C14            8.1435     4.3481     1.2898 C.3     
  15 C15            8.1850     3.9572    -1.1775 C.3     
  16 N16            9.3285     4.8541    -1.3628 N.am    
  17 S17           10.6042     4.3847    -2.3086 S.o2    
  18 C18           11.2999     2.9467    -1.4491 C.3     
  19 O19           10.0047     3.9906    -3.5352 O.2     
  20 O20           11.5045     5.4827    -2.2528 O.2     
  21 C21           12.5058     2.4202    -2.2298 C.3     
  22 C22           11.7424     3.3577    -0.0434 C.3     
  23 C23           -0.8620    -1.1636     0.7444 C.1     
  24 N24           -1.7966    -1.8036     0.8304 N.1     
  25 H25           -0.7713     1.4733     0.3232 H       
  26 H26            1.6671    -2.0072     0.9204 H       
  27 H27            3.6868    -0.6212     0.7345 H       
  28 H28            1.2510     2.8564     0.1434 H       
  29 H29            2.7336     3.8711     0.0076 H       
  30 H30            4.7630     5.2495    -0.1745 H       
  31 H31            7.1871     1.7887     0.4137 H       
  32 H32            5.1686     0.3954     0.6050 H       
  33 H33            7.0498     5.4887    -0.1742 H       
  34 H34            7.5378     4.6994     2.1252 H       
  35 H35            8.4285     3.3097     1.4591 H       
  36 H36            9.0402     4.9622     1.2077 H       
  37 H37            8.5438     2.9496    -0.9677 H       
  38 H38            7.5811     3.9463    -2.0849 H       
  39 H39            9.3384     5.7229    -0.9315 H       
  40 H40           10.5437     2.1650    -1.3780 H       
  41 H41           13.2621     3.2019    -2.3009 H       
  42 H42           12.9239     1.5561    -1.7134 H       
  43 H43           12.1906     2.1274    -3.2313 H       
  44 H44           10.8701     3.6504     0.5411 H       
  45 H45           12.2392     2.5172     0.4414 H       
  46 H46           12.4331     4.1982    -0.1110 H       
@<TRIPOS>BOND
   1    1    2 ar
   2    1    6 ar
   3    1   25 1
   4    2    3 ar
   5    2   23 1
   6    3    4 ar
   7    3   26 1
   8    4    5 ar
   9    4   27 1
  10    5    6 ar
  11    5    7 1
  12    6   28 1
  13    7    8 ar
  14    7   12 ar
  15    8    9 ar
  16    8   29 1
  17    9   10 ar
  18    9   30 1
  19   10   11 ar
  20   10   13 1
  21   11   12 ar
  22   11   31 1
  23   12   32 1
  24   13   14 1
  25   13   15 1
  26   13   33 1
  27   14   34 1
  28   14   35 1
  29   14   36 1
  30   15   16 1
  31   15   37 1
  32   15   38 1
  33   16   17 am
  34   16   39 1
  35   17   18 1
  36   17   19 2
  37   17   20 2
  38   18   21 1
  39   18   22 1
  40   18   40 1
  41   21   41 1
  42   21   42 1
  43   21   43 1
  44   22   44 1
  45   22   45 1
  46   22   46 1
  47   23   24 3

#	End of record

