#	Name: ASD01885686
#	Creating user name:	WinNT
#	Creation time:	15. 06. 2019 19:50

#	Modifying user name:	WinNT
#	Modification time:	15. 06. 2019 19:50

#	Program:	/corina/corina34_cracker 3.40 0067  02.08.2006

@<TRIPOS>MOLECULE
ASD01885686
  52   55    0    0    0
SMALL
NO_CHARGES


@<TRIPOS>ATOM
   1 C1            -0.0160     1.3290     0.0093 C.ar    
   2 C2             1.2006     2.0571     0.0016 C.ar    
   3 C3             2.4279     1.3474    -0.0134 C.ar    
   4 C4             2.3762    -0.0398    -0.0200 C.ar    
   5 C5             1.1334    -0.6832    -0.0116 C.ar    
   6 N6             0.0021    -0.0041     0.0020 N.ar    
   7 C7            -1.2256     3.3958     0.0258 C.ar    
   8 C8            -0.0270     4.1070     0.0226 C.ar    
   9 C9             1.1708     3.4578     0.0086 C.ar    
  10 C10            3.7240     2.0634    -0.0225 C.ar    
  11 C11            1.0867    -2.1653    -0.0196 C.2     
  12 C12           -2.5327     4.1456     0.0360 C.3     
  13 C13           -1.2343     2.0355     0.0189 C.ar    
  14 N14           -0.1011    -2.8021    -0.0131 N.am    
  15 O15            2.1192    -2.8056    -0.0321 O.2     
  16 N16           -2.9496     4.3815     1.4205 N.pl3   
  17 N17           -3.1118     3.4012     2.4068 N.2     
  18 C18           -3.4911     3.9831     3.5132 C.2     
  19 C19           -3.5851     5.3683     3.2690 C.2     
  20 C20           -3.2373     5.5802     1.9653 C.2     
  21 C21            4.7205     1.7183     0.8910 C.ar    
  22 C22            5.9261     2.3878     0.8782 C.ar    
  23 C23            6.1485     3.4022    -0.0397 C.ar    
  24 C24            5.1617     3.7487    -0.9491 C.ar    
  25 C25            3.9548     3.0813    -0.9482 C.ar    
  26 F26            7.3309     4.0557    -0.0476 F       
  27 C27           -3.9830     6.4053     4.2489 C.2     
  28 O28           -4.2995     6.0513     5.5215 O.3     
  29 C29           -4.0305     7.6841     3.8823 C.2     
  30 C30           -4.6743     7.1032     6.4133 C.3     
  31 C31           -4.9925     6.5157     7.7897 C.3     
  32 H32            3.2882    -0.6182    -0.0318 H       
  33 H33           -0.0480     5.1868     0.0274 H       
  34 H34            2.0928     4.0202     0.0031 H       
  35 H35           -2.4075     5.1010    -0.4736 H       
  36 H36           -3.2932     3.5570    -0.4772 H       
  37 H37           -2.1718     1.4994     0.0203 H       
  38 H38           -0.9254    -2.2910    -0.0031 H       
  39 H39           -0.1316    -3.7716    -0.0184 H       
  40 H40           -3.6971     3.4890     4.4512 H       
  41 H41           -3.2052     6.5345     1.4606 H       
  42 H42            4.5479     0.9285     1.6071 H       
  43 H43            6.6982     2.1215     1.5849 H       
  44 H44            5.3396     4.5400    -1.6622 H       
  45 H45            3.1866     3.3517    -1.6575 H       
  46 H46           -4.3206     8.4402     4.5968 H       
  47 H47           -3.7788     7.9655     2.8704 H       
  48 H48           -3.8527     7.8138     6.5026 H       
  49 H49           -5.5552     7.6133     6.0235 H       
  50 H50           -4.1116     6.0056     8.1795 H       
  51 H51           -5.2785     7.3180     8.4699 H       
  52 H52           -5.8141     5.8050     7.7003 H       
@<TRIPOS>BOND
   1    1    6 ar
   2    1    2 ar
   3    1   13 ar
   4    2    3 ar
   5    2    9 ar
   6    3   10 1
   7    3    4 ar
   8    4    5 ar
   9    4   32 1
  10    5   11 1
  11    5    6 ar
  12    7   12 1
  13    7   13 ar
  14    7    8 ar
  15    8    9 ar
  16    8   33 1
  17    9   34 1
  18   10   21 ar
  19   10   25 ar
  20   11   14 am
  21   11   15 2
  22   12   16 1
  23   12   35 1
  24   12   36 1
  25   13   37 1
  26   14   38 1
  27   14   39 1
  28   16   17 1
  29   16   20 1
  30   17   18 2
  31   18   19 1
  32   18   40 1
  33   19   20 2
  34   19   27 1
  35   20   41 1
  36   21   22 ar
  37   21   42 1
  38   22   23 ar
  39   22   43 1
  40   23   24 ar
  41   23   26 1
  42   24   25 ar
  43   24   44 1
  44   25   45 1
  45   27   28 1
  46   27   29 2
  47   28   30 1
  48   29   46 1
  49   29   47 1
  50   30   31 1
  51   30   48 1
  52   30   49 1
  53   31   50 1
  54   31   51 1
  55   31   52 1

#	End of record

