#	Name: ASD02408013
#	Creating user name:	WinNT
#	Creation time:	15. 06. 2019 20:20

#	Modifying user name:	WinNT
#	Modification time:	15. 06. 2019 20:20

#	Program:	/corina/corina34_cracker 3.40 0067  02.08.2006

@<TRIPOS>MOLECULE
ASD02408013
  32   33    0    0    0
SMALL
NO_CHARGES


@<TRIPOS>ATOM
   1 C1            -0.0167     1.3779     0.0096 C.ar    
   2 C2             0.0021    -0.0041     0.0020 C.ar    
   3 C3             1.2780     2.1491     0.0014 C.3     
   4 C4             1.6960     2.4138    -1.4221 C.2     
   5 N5             2.8361     3.0953    -1.6501 N.am    
   6 N6             0.9448     1.9708    -2.3927 N.2     
   7 C7             1.2669     2.1760    -3.6771 C.2     
   8 C8             2.4411     2.8848    -3.9864 C.2     
   9 C9             3.2410     3.3504    -2.9119 C.2     
  10 S10            0.2307     1.5639    -4.9641 S.3     
  11 O11            4.2691     3.9703    -3.1233 O.2     
  12 C12           -1.1857    -0.7116     0.0096 C.ar    
  13 C13           -2.3919    -0.0369     0.0253 C.ar    
  14 C14           -2.4106     1.3455     0.0338 C.ar    
  15 C15           -1.2233     2.0528     0.0190 C.ar    
  16 C16           -1.0649     0.7755    -3.9763 C.3     
  17 C17           -1.1653    -2.2184     0.0003 C.3     
  18 C18            2.8206     3.1251    -5.3462 C.1     
  19 N19            3.1217     3.3158    -6.4248 N.1     
  20 H20            0.9446    -0.5313    -0.0102 H       
  21 H21            1.1397     3.0969     0.5217 H       
  22 H22            2.0505     1.5677     0.5048 H       
  23 H23            3.3695     3.4051    -0.9015 H       
  24 H24           -3.3198    -0.5895     0.0305 H       
  25 H25           -3.3531     1.8727     0.0456 H       
  26 H26           -1.2379     3.1327     0.0256 H       
  27 H27           -0.6242    -0.0035    -3.3542 H       
  28 H28           -1.5419     1.5216    -3.3407 H       
  29 H29           -1.8090     0.3337    -4.6391 H       
  30 H30           -1.1501    -2.5879     1.0257 H       
  31 H31           -2.0553    -2.5907    -0.5069 H       
  32 H32           -0.2756    -2.5665    -0.5245 H       
@<TRIPOS>BOND
   1    1    2 ar
   2    1    3 1
   3    1   15 ar
   4    2   12 ar
   5    2   20 1
   6    3    4 1
   7    3   21 1
   8    3   22 1
   9    4    5 1
  10    4    6 2
  11    5    9 am
  12    5   23 1
  13    6    7 1
  14    7    8 2
  15    7   10 1
  16    8    9 1
  17    8   18 1
  18    9   11 2
  19   10   16 1
  20   12   13 ar
  21   12   17 1
  22   13   14 ar
  23   13   24 1
  24   14   15 ar
  25   14   25 1
  26   15   26 1
  27   16   27 1
  28   16   28 1
  29   16   29 1
  30   17   30 1
  31   17   31 1
  32   17   32 1
  33   18   19 3

#	End of record

