#	Name: ASD04550006
#	Creating user name:	WinNT
#	Creation time:	15. 06. 2019 20:49

#	Modifying user name:	WinNT
#	Modification time:	15. 06. 2019 20:49

#	Program:	/corina/corina34_cracker 3.40 0067  02.08.2006

@<TRIPOS>MOLECULE
ASD04550006
  37   38    0    0    0
SMALL
NO_CHARGES


@<TRIPOS>ATOM
   1 C1            -0.0167     1.3781     0.0096 C.ar    
   2 C2             0.0021    -0.0041     0.0020 C.ar    
   3 C3             1.2084    -0.6789    -0.0132 C.ar    
   4 C4             2.3960     0.0285    -0.0212 C.ar    
   5 C5             2.3773     1.4107    -0.0145 C.ar    
   6 C6             1.1710     2.0855     0.0021 C.ar    
   7 C7            -1.2926    -0.7753     0.0108 C.3     
   8 C8             3.6720     2.1819    -0.0228 C.3     
   9 C9             3.7296     3.0684    -1.2685 C.3     
  10 C10           -1.3742    -1.6492    -1.2424 C.3     
  11 C11           -2.6886    -2.4321    -1.2335 C.3     
  12 C12           -2.7453    -3.3195     0.0116 C.3     
  13 C13           -2.6637    -2.4455     1.2648 C.3     
  14 C14           -1.3493    -1.6626     1.2559 C.3     
  15 C15            3.7514     3.0435     1.2111 C.2     
  16 O16            2.8492     3.0325     2.0147 O.2     
  17 O17            4.8244     3.8232     1.4173 O.3     
  18 H18           -0.9592     1.9054     0.0170 H       
  19 H19            1.2231    -1.7588    -0.0184 H       
  20 H20            3.3386    -0.4987    -0.0324 H       
  21 H21            1.1563     3.1654     0.0069 H       
  22 H22           -2.1306    -0.0783     0.0229 H       
  23 H23            4.5100     1.4850    -0.0338 H       
  24 H24            4.6661     3.6262    -1.2744 H       
  25 H25            3.6722     2.4453    -2.1609 H       
  26 H26            2.8916     3.7654    -1.2575 H       
  27 H27           -1.3338    -1.0170    -2.1295 H       
  28 H28           -0.5362    -2.3461    -1.2545 H       
  29 H29           -3.5266    -1.7352    -1.2214 H       
  30 H30           -2.7467    -3.0547    -2.1263 H       
  31 H31           -3.6817    -3.8773     0.0180 H       
  32 H32           -1.9073    -4.0164    -0.0005 H       
  33 H33           -3.5017    -1.7486     1.2769 H       
  34 H34           -2.7041    -3.0777     2.1519 H       
  35 H35           -0.5113    -2.3595     1.2438 H       
  36 H36           -1.2912    -1.0400     2.1487 H       
  37 H37            4.8300     4.3581     2.2229 H       
@<TRIPOS>BOND
   1    1    2 ar
   2    1    6 ar
   3    1   18 1
   4    2    3 ar
   5    2    7 1
   6    3    4 ar
   7    3   19 1
   8    4    5 ar
   9    4   20 1
  10    5    6 ar
  11    5    8 1
  12    6   21 1
  13    7   10 1
  14    7   14 1
  15    7   22 1
  16    8    9 1
  17    8   15 1
  18    8   23 1
  19    9   24 1
  20    9   25 1
  21    9   26 1
  22   10   11 1
  23   10   27 1
  24   10   28 1
  25   11   12 1
  26   11   29 1
  27   11   30 1
  28   12   13 1
  29   12   31 1
  30   12   32 1
  31   13   14 1
  32   13   33 1
  33   13   34 1
  34   14   35 1
  35   14   36 1
  36   15   16 2
  37   15   17 1
  38   17   37 1

#	End of record

