#	Name: ASD03430410
#	Creating user name:	WinNT
#	Creation time:	15. 06. 2019 20:41

#	Modifying user name:	WinNT
#	Modification time:	15. 06. 2019 20:41

#	Program:	/corina/corina34_cracker 3.40 0067  02.08.2006

@<TRIPOS>MOLECULE
ASD03430410
  58   63    0    0    0
SMALL
NO_CHARGES


@<TRIPOS>ATOM
   1 N1            -0.0157     1.4932     0.4901 N.am    
   2 C2             0.0409     0.2263     0.9344 C.2     
   3 C3             1.4805    -0.0488     1.3138 C.3     
   4 C4             2.1944     1.2486     1.0118 C.ar    
   5 C5             3.5068     1.6460     1.1354 C.ar    
   6 C6             3.8770     2.9283     0.7697 C.ar    
   7 C7             2.9262     3.8059     0.2812 C.ar    
   8 C8             1.6107     3.4103     0.1564 C.ar    
   9 C9             1.2302     2.1206     0.5226 C.ar    
  10 O10           -0.8869    -0.5505     1.0164 O.2     
  11 O11            1.8753    -1.2714     6.8072 O.3     
  12 C12            2.0714    -2.6448     7.1607 C.3     
  13 C13            3.1721    -3.2204     6.2594 C.3     
  14 O14            2.7447    -3.1006     4.8982 O.3     
  15 C15            2.2184    -1.9010     4.5252 C.ar    
  16 C16            1.7825    -0.9885     5.4790 C.ar    
  17 C17            2.1195    -1.5922     3.1772 C.ar    
  18 C18            1.5859    -0.3806     2.7800 C.ar    
  19 C19            1.1480     0.5299     3.7296 C.ar    
  20 C20            1.2464     0.2258     5.0788 C.ar    
  21 O21            0.6225     1.7212     3.3377 O.3     
  22 O22            2.0136    -1.1103     0.5193 O.3     
  23 C23           -1.2434     2.1395     0.0197 C.3     
  24 C24           -0.9991     2.7578    -1.3327 C.ar    
  25 C25           -1.5151     4.0065    -1.6251 C.ar    
  26 C26           -1.2910     4.5737    -2.8657 C.ar    
  27 C27           -0.5507     3.8924    -3.8136 C.ar    
  28 C28           -0.0340     2.6442    -3.5209 C.ar    
  29 C29           -0.2543     2.0788    -2.2788 C.ar    
  30 C30           -2.3417     1.1132    -0.0881 C.ar    
  31 C31           -3.4804     1.2356     0.6860 C.ar    
  32 C32           -4.4879     0.2942     0.5871 C.ar    
  33 C33           -4.3568    -0.7692    -0.2863 C.ar    
  34 C34           -3.2185    -0.8911    -1.0611 C.ar    
  35 C35           -2.2129     0.0526    -0.9653 C.ar    
  36 H36            4.2463     0.9579     1.5176 H       
  37 H37            4.9057     3.2431     0.8658 H       
  38 H38            3.2153     4.8067    -0.0038 H       
  39 H39            0.8740     4.1014    -0.2259 H       
  40 H40            2.3767    -2.7157     8.2047 H       
  41 H41            1.1451    -3.1992     7.0096 H       
  42 H42            4.0964    -2.6613     6.4051 H       
  43 H43            3.3347    -4.2704     6.5026 H       
  44 H44            2.4598    -2.3001     2.4359 H       
  45 H45            0.9050     0.9351     5.8182 H       
  46 H46           -0.3346     1.7030     3.2009 H       
  47 H47            1.5527    -1.9533     0.6290 H       
  48 H48           -1.5391     2.9153     0.7259 H       
  49 H49           -2.0935     4.5388    -0.8845 H       
  50 H50           -1.6947     5.5490    -3.0944 H       
  51 H51           -0.3762     4.3353    -4.7831 H       
  52 H52            0.5442     2.1118    -4.2616 H       
  53 H53            0.1525     1.1052    -2.0488 H       
  54 H54           -3.5828     2.0665     1.3683 H       
  55 H55           -5.3772     0.3895     1.1924 H       
  56 H56           -5.1436    -1.5051    -0.3630 H       
  57 H57           -3.1159    -1.7221    -1.7431 H       
  58 H58           -1.3252    -0.0405    -1.5733 H       
@<TRIPOS>BOND
   1    1    2 am
   2    1    9 1
   3    1   23 1
   4    2    3 1
   5    2   10 2
   6    3    4 1
   7    3   18 1
   8    3   22 1
   9    4    5 ar
  10    4    9 ar
  11    5    6 ar
  12    5   36 1
  13    6    7 ar
  14    6   37 1
  15    7    8 ar
  16    7   38 1
  17    8    9 ar
  18    8   39 1
  19   11   12 1
  20   11   16 1
  21   12   13 1
  22   12   40 1
  23   12   41 1
  24   13   14 1
  25   13   42 1
  26   13   43 1
  27   14   15 1
  28   15   16 ar
  29   15   17 ar
  30   16   20 ar
  31   17   18 ar
  32   17   44 1
  33   18   19 ar
  34   19   20 ar
  35   19   21 1
  36   20   45 1
  37   21   46 1
  38   22   47 1
  39   23   24 1
  40   23   30 1
  41   23   48 1
  42   24   25 ar
  43   24   29 ar
  44   25   26 ar
  45   25   49 1
  46   26   27 ar
  47   26   50 1
  48   27   28 ar
  49   27   51 1
  50   28   29 ar
  51   28   52 1
  52   29   53 1
  53   30   31 ar
  54   30   35 ar
  55   31   32 ar
  56   31   54 1
  57   32   33 ar
  58   32   55 1
  59   33   34 ar
  60   33   56 1
  61   34   35 ar
  62   34   57 1
  63   35   58 1

#	End of record

