#	Name: ASD01811508
#	Creating user name:	WinNT
#	Creation time:	15. 06. 2019 19:26

#	Modifying user name:	WinNT
#	Modification time:	15. 06. 2019 19:26

#	Program:	/corina/corina34_cracker 3.40 0067  02.08.2006

@<TRIPOS>MOLECULE
ASD01811508
  75   80    0    0    0
SMALL
NO_CHARGES


@<TRIPOS>ATOM
   1 C1            -7.3570     2.2254    -3.9971 C.1     
   2 C2            -6.3760     3.0160    -3.3165 C.ar    
   3 C3            -5.2071     2.4223    -2.8359 C.ar    
   4 C4            -4.2664     3.1899    -2.1812 C.ar    
   5 C5            -4.4791     4.5450    -1.9999 C.ar    
   6 C6            -5.6352     5.1397    -2.4732 C.ar    
   7 C7            -6.5813     4.3853    -3.1356 C.ar    
   8 N8            -8.1352     1.5981    -4.5369 N.1     
   9 N9            -2.4213     7.7924    -0.2279 N.am    
  10 C10           -1.8686     7.3012    -1.4975 C.3     
  11 C11           -2.9423     6.4792    -2.2174 C.3     
  12 C12           -3.4469     5.3770    -1.2833 C.3     
  13 C13           -4.0756     6.0086    -0.0391 C.3     
  14 C14           -3.0147     6.8253     0.7055 C.3     
  15 C15           -2.3796     9.1045     0.0772 C.2     
  16 C16           -3.0220     9.5966     1.3148 C.ar    
  17 C17           -3.9802    10.6109     1.2505 C.ar    
  18 C18           -4.5808    11.0712     2.4051 C.ar    
  19 C19           -4.2393    10.5331     3.6303 C.ar    
  20 C20           -3.2831     9.5189     3.7087 C.ar    
  21 C21           -2.6772     9.0456     2.5470 C.ar    
  22 O22           -1.8138     9.8834    -0.6649 O.2     
  23 C23           -4.3588    11.2043    -0.0820 C.3     
  24 C24           -1.1343     6.7406     7.3499 C.3     
  25 C25           -1.9701     7.7251     6.5739 C.2     
  26 C26           -2.8600     8.5715     7.1462 C.2     
  27 C27           -3.1133     8.6141     8.6340 C.3     
  28 C28           -2.5347     7.3315     9.2471 C.3     
  29 N29           -1.1593     7.1317     8.7699 N.3     
  30 C30           -2.9182     8.9441     5.0221 C.2     
  31 N31           -2.0017     7.9519     5.2339 N.pl3   
  32 N32           -3.4213     9.3014     6.1861 N.2     
  33 C33           -0.4520     6.1471     9.5996 C.3     
  34 C34            0.9773     5.9761     9.0812 C.3     
  35 C35           -0.4138     6.6352    11.0492 C.3     
  36 C36           -4.8998    11.0423     4.8855 C.3     
  37 C37           -4.7278    12.5247     5.2229 C.3     
  38 C38           -6.0774    12.0055     4.7232 C.3     
  39 H39           -5.0402     1.3645    -2.9761 H       
  40 H40           -3.3618     2.7320    -1.8089 H       
  41 H41           -5.7951     6.1979    -2.3280 H       
  42 H42           -7.4811     4.8516    -3.5088 H       
  43 H43           -1.5769     8.1467    -2.1205 H       
  44 H44           -0.9997     6.6737    -1.2994 H       
  45 H45           -3.7723     7.1287    -2.4954 H       
  46 H46           -2.5158     6.0292    -3.1139 H       
  47 H47           -2.6120     4.7426    -0.9858 H       
  48 H48           -4.8949     6.6626    -0.3376 H       
  49 H49           -4.4557     5.2238     0.6148 H       
  50 H50           -2.2392     6.1590     1.0833 H       
  51 H51           -3.4792     7.3568     1.5361 H       
  52 H52           -5.3209    11.8559     2.3500 H       
  53 H53           -1.9402     8.2581     2.6019 H       
  54 H54           -5.1275    10.5884    -0.5488 H       
  55 H55           -4.7421    12.2139     0.0655 H       
  56 H56           -3.4805    11.2397    -0.7267 H       
  57 H57           -1.5478     5.7384     7.2373 H       
  58 H58           -0.1085     6.7590     6.9817 H       
  59 H59           -2.6209     9.4847     9.0672 H       
  60 H60           -4.1854     8.6629     8.8245 H       
  61 H61           -2.5327     7.4177    10.3337 H       
  62 H62           -3.1480     6.4799     8.9526 H       
  63 H63           -1.4749     7.4974     4.5580 H       
  64 H64           -0.9727     5.1907     9.5518 H       
  65 H65            0.9501     5.6285     8.0485 H       
  66 H66            1.4980     6.9326     9.1290 H       
  67 H67            1.5021     5.2456     9.6968 H       
  68 H68           -1.4321     6.7570    11.4185 H       
  69 H69            0.1110     5.9046    11.6648 H       
  70 H70            0.1069     7.5916    11.0969 H       
  71 H71           -4.9362    10.3379     5.7165 H       
  72 H72           -4.6513    12.7955     6.2759 H       
  73 H73           -4.1368    13.1316     4.5370 H       
  74 H74           -6.3744    12.2709     3.7086 H       
  75 H75           -6.8889    11.9348     5.4475 H       
@<TRIPOS>BOND
   1    1    2 1
   2    1    8 3
   3    2    3 ar
   4    2    7 ar
   5    3    4 ar
   6    3   39 1
   7    4    5 ar
   8    4   40 1
   9    5    6 ar
  10    5   12 1
  11    6    7 ar
  12    6   41 1
  13    7   42 1
  14    9   10 1
  15    9   14 1
  16    9   15 am
  17   10   11 1
  18   10   43 1
  19   10   44 1
  20   11   12 1
  21   11   45 1
  22   11   46 1
  23   12   13 1
  24   12   47 1
  25   13   14 1
  26   13   48 1
  27   13   49 1
  28   14   50 1
  29   14   51 1
  30   15   16 1
  31   15   22 2
  32   16   17 ar
  33   16   21 ar
  34   17   18 ar
  35   17   23 1
  36   18   19 ar
  37   18   52 1
  38   19   20 ar
  39   19   36 1
  40   20   21 ar
  41   20   30 1
  42   21   53 1
  43   23   54 1
  44   23   55 1
  45   23   56 1
  46   24   25 1
  47   24   29 1
  48   24   57 1
  49   24   58 1
  50   25   26 2
  51   25   31 1
  52   26   27 1
  53   26   32 1
  54   27   28 1
  55   27   59 1
  56   27   60 1
  57   28   29 1
  58   28   61 1
  59   28   62 1
  60   29   33 1
  61   30   31 1
  62   30   32 2
  63   31   63 1
  64   33   34 1
  65   33   35 1
  66   33   64 1
  67   34   65 1
  68   34   66 1
  69   34   67 1
  70   35   68 1
  71   35   69 1
  72   35   70 1
  73   36   37 1
  74   36   38 1
  75   36   71 1
  76   37   38 1
  77   37   72 1
  78   37   73 1
  79   38   74 1
  80   38   75 1

#	End of record

