#	Name: ASD03091810
#	Creating user name:	WinNT
#	Creation time:	15. 06. 2019 20:31

#	Modifying user name:	WinNT
#	Modification time:	15. 06. 2019 20:31

#	Program:	/corina/corina34_cracker 3.40 0067  02.08.2006

@<TRIPOS>MOLECULE
ASD03091810
  48   52    0    0    0
SMALL
NO_CHARGES


@<TRIPOS>ATOM
   1 N1            -0.0178     1.4608     0.0101 N.pl3   
   2 C2            -1.3269    -2.0640     0.4733 C.3     
   3 C3            -1.2939    -0.5345     0.6219 C.3     
   4 C4             0.0021    -0.0041     0.0020 C.3     
   5 C5             0.1277    -0.5039    -1.4400 C.3     
   6 C6            -0.0017    -2.0355    -1.4488 C.3     
   7 C7             0.9201    -2.5943    -0.3405 C.3     
   8 C8             0.0444    -2.6132     0.9296 C.3     
   9 N9            -1.3749    -2.3645    -0.9824 N.3     
  10 C10           -1.6856    -3.7809    -1.2176 C.3     
  11 C11            2.3997     1.5052    -0.0128 C.ar    
  12 C12            1.1821     2.1755     0.0025 C.ar    
  13 C13            1.1727     3.5693     0.0096 C.ar    
  14 C14            2.3839     4.2364     0.0011 C.ar    
  15 C15            3.5656     3.4978    -0.0141 C.ar    
  16 N16            3.5355     2.1714    -0.0205 N.ar    
  17 O17            8.6051     5.9173    -0.0528 O.3     
  18 C18            9.4088     4.8398    -0.0660 C.2     
  19 C19            8.6774     3.7174    -0.0637 C.2     
  20 C20            7.2726     4.1446    -0.0475 C.ar    
  21 C21            7.3075     5.5501    -0.0414 C.ar    
  22 C22            6.0534     3.4730    -0.0389 C.ar    
  23 C23            4.8708     4.2021    -0.0237 C.ar    
  24 C24            4.9111     5.5997    -0.0180 C.ar    
  25 C25            6.1154     6.2650    -0.0269 C.ar    
  26 H26           -0.8643     1.9343     0.0167 H       
  27 H27           -2.1542    -2.5122     1.0237 H       
  28 H28           -2.1500    -0.0990     0.1066 H       
  29 H29           -1.3282    -0.2695     1.6787 H       
  30 H30            0.8535    -0.3583     0.5832 H       
  31 H31           -0.6645    -0.0671    -2.0481 H       
  32 H32            1.0993    -0.2172    -1.8424 H       
  33 H33            0.2246    -2.4610    -2.4265 H       
  34 H34            1.2462    -3.6037    -0.5915 H       
  35 H35            1.7810    -1.9411    -0.1980 H       
  36 H36            0.4747    -1.9693     1.6966 H       
  37 H37           -0.0602    -3.6319     1.3031 H       
  38 H38           -2.6552    -4.0177    -0.7797 H       
  39 H39           -1.7145    -3.9732    -2.2901 H       
  40 H40           -0.9175    -4.4026    -0.7575 H       
  41 H41            2.4144     0.4253    -0.0138 H       
  42 H42            0.2411     4.1156     0.0210 H       
  43 H43            2.4137     5.3159     0.0059 H       
  44 H44           10.4882     4.8740    -0.0773 H       
  45 H45            9.0467     2.7025    -0.0721 H       
  46 H46            6.0270     2.3933    -0.0440 H       
  47 H47            3.9889     6.1618    -0.0069 H       
  48 H48            6.1346     7.3449    -0.0217 H       
@<TRIPOS>BOND
   1    1    4 1
   2    1   12 1
   3    1   26 1
   4    2    3 1
   5    2    8 1
   6    2    9 1
   7    2   27 1
   8    3    4 1
   9    3   28 1
  10    3   29 1
  11    4    5 1
  12    4   30 1
  13    5    6 1
  14    5   31 1
  15    5   32 1
  16    6    7 1
  17    6    9 1
  18    6   33 1
  19    7    8 1
  20    7   34 1
  21    7   35 1
  22    8   36 1
  23    8   37 1
  24    9   10 1
  25   10   38 1
  26   10   39 1
  27   10   40 1
  28   11   12 ar
  29   11   16 ar
  30   11   41 1
  31   12   13 ar
  32   13   14 ar
  33   13   42 1
  34   14   15 ar
  35   14   43 1
  36   15   16 ar
  37   15   23 1
  38   17   18 1
  39   17   21 1
  40   18   19 2
  41   18   44 1
  42   19   20 1
  43   19   45 1
  44   20   21 ar
  45   20   22 ar
  46   21   25 ar
  47   22   23 ar
  48   22   46 1
  49   23   24 ar
  50   24   25 ar
  51   24   47 1
  52   25   48 1

#	End of record

