#	Name: ASD01150850
#	Creating user name:	WinNT
#	Creation time:	15. 06. 2019 19:05

#	Modifying user name:	WinNT
#	Modification time:	15. 06. 2019 19:05

#	Program:	/corina/corina34_cracker 3.40 0067  02.08.2006

@<TRIPOS>MOLECULE
ASD01150850
  49   51    0    0    0
SMALL
NO_CHARGES


@<TRIPOS>ATOM
   1 C1            -0.0169     1.3921     0.0097 C.ar    
   2 C2             0.0021    -0.0041     0.0020 C.ar    
   3 C3             1.2238    -0.6799    -0.0133 C.ar    
   4 C4             2.4035     0.0343    -0.0207 C.ar    
   5 C5             2.3781     1.4188    -0.0130 C.ar    
   6 C6             1.1696     2.0949     0.0021 C.ar    
   7 C7            -1.2655    -0.7632     0.0105 C.2     
   8 N8            -1.2440    -2.1108     0.0031 N.am    
   9 O9            -2.3277    -0.1723     0.0243 O.2     
  10 C10           -2.4365    -2.8249     0.0111 C.2     
  11 N11           -3.6658    -2.3039     0.0256 N.2     
  12 C12           -4.5641    -3.2676     0.0291 C.2     
  13 N13           -3.9337    -4.4704     0.0166 N.pl3   
  14 C14           -2.5626    -4.2084    -0.0007 C.2     
  15 S15           -6.3103    -3.0327     0.0479 S.3     
  16 C16           -6.3840    -1.2242     0.0583 C.3     
  17 C17           -4.5704    -5.7897     0.0156 C.3     
  18 C18           -1.5185    -5.1550    -0.0181 C.2     
  19 O19           -1.8038    -6.4751    -0.0193 O.3     
  20 O20           -0.3591    -4.7826    -0.0322 O.2     
  21 C21           -0.6965    -7.3781    -0.0374 C.3     
  22 C22           -1.2128    -8.8184    -0.0359 C.3     
  23 Br23           4.0004     2.3904    -0.0227 Br      
  24 C24           -4.8018    -6.2348    -1.4054 C.ar    
  25 C25           -3.8298    -6.9592    -2.0698 C.ar    
  26 C26           -4.0420    -7.3674    -3.3733 C.ar    
  27 C27           -5.2263    -7.0516    -4.0124 C.ar    
  28 C28           -6.1987    -6.3280    -3.3477 C.ar    
  29 C29           -5.9883    -5.9235    -2.0427 C.ar    
  30 H30           -0.9588     1.9205     0.0170 H       
  31 H31            1.2449    -1.7597    -0.0189 H       
  32 H32            3.3491    -0.4873    -0.0322 H       
  33 H33            1.1563     3.1748     0.0081 H       
  34 H34           -0.3964    -2.5823    -0.0079 H       
  35 H35           -5.8944    -0.8355    -0.8346 H       
  36 H36           -7.4256    -0.9031     0.0705 H       
  37 H37           -5.8765    -0.8450     0.9453 H       
  38 H38           -3.9221    -6.5064     0.5198 H       
  39 H39           -5.5251    -5.7328     0.5385 H       
  40 H40           -0.1021    -7.2062    -0.9348 H       
  41 H41           -0.0784    -7.2128     0.8450 H       
  42 H42           -0.3681    -9.5072    -0.0498 H       
  43 H43           -1.8072    -8.9903     0.8614 H       
  44 H44           -1.8309    -8.9836    -0.9184 H       
  45 H45           -2.9044    -7.2060    -1.5705 H       
  46 H46           -3.2823    -7.9328    -3.8926 H       
  47 H47           -5.3918    -7.3699    -5.0311 H       
  48 H48           -7.1239    -6.0809    -3.8471 H       
  49 H49           -6.7480    -5.3581    -1.5235 H       
@<TRIPOS>BOND
   1    1    2 ar
   2    1    6 ar
   3    1   30 1
   4    2    3 ar
   5    2    7 1
   6    3    4 ar
   7    3   31 1
   8    4    5 ar
   9    4   32 1
  10    5    6 ar
  11    5   23 1
  12    6   33 1
  13    7    8 am
  14    7    9 2
  15    8   10 1
  16    8   34 1
  17   10   11 1
  18   10   14 2
  19   11   12 2
  20   12   13 1
  21   12   15 1
  22   13   14 1
  23   13   17 1
  24   14   18 1
  25   15   16 1
  26   16   35 1
  27   16   36 1
  28   16   37 1
  29   17   24 1
  30   17   38 1
  31   17   39 1
  32   18   19 1
  33   18   20 2
  34   19   21 1
  35   21   22 1
  36   21   40 1
  37   21   41 1
  38   22   42 1
  39   22   43 1
  40   22   44 1
  41   24   25 ar
  42   24   29 ar
  43   25   26 ar
  44   25   45 1
  45   26   27 ar
  46   26   46 1
  47   27   28 ar
  48   27   47 1
  49   28   29 ar
  50   28   48 1
  51   29   49 1

#	End of record

