#	Name: ASD06020007
#	Creating user name:	WinNT
#	Creation time:	15. 06. 2019 21:04

#	Modifying user name:	WinNT
#	Modification time:	15. 06. 2019 21:04

#	Program:	/corina/corina34_cracker 3.40 0067  02.08.2006

@<TRIPOS>MOLECULE
ASD06020007
  40   43    0    0    0
SMALL
NO_CHARGES


@<TRIPOS>ATOM
   1 C1             0.0070    -0.0032     0.0570 C.1     
   2 C2            -0.0132     1.4287     0.0547 C.ar    
   3 C3             1.1872     2.1441     0.0334 C.ar    
   4 C4             1.1690     3.5214     0.0312 C.ar    
   5 C5            -0.0506     4.2046     0.0503 C.ar    
   6 C6            -1.2521     3.4890     0.0717 C.ar    
   7 C7            -1.2326     2.1097     0.0681 C.ar    
   8 N8             0.0230    -1.1391     0.0588 N.1     
   9 F9            -2.4312     4.1482     0.0906 F       
  10 C10           -0.8859     9.4881     0.0578 C.ar    
  11 C11           -0.5461     8.1309     0.0540 C.ar    
  12 C12            0.8028     7.7572     0.0327 C.ar    
  13 C13            1.7614     8.8024     0.0160 C.ar    
  14 C14            1.3433    10.0955     0.0212 C.ar    
  15 N15            0.0582    10.4128     0.0412 N.ar    
  16 S16           -1.5259     6.6689     0.0710 S.3     
  17 C17           -0.0702     5.6817     0.0484 C.2     
  18 N18            0.9807     6.4359     0.0309 N.2     
  19 N19           -2.2254     9.8664     0.0732 N.pl3   
  20 C20           -1.9491    13.4000     0.5008 C.ar    
  21 N21           -1.6287    12.1266     0.3909 N.ar    
  22 C22           -2.5664    11.2058     0.1888 C.ar    
  23 C23           -3.9001    11.6090     0.0944 C.ar    
  24 C24           -4.1883    12.9541     0.2157 C.ar    
  25 N25           -3.1978    13.8122     0.4163 N.ar    
  26 C26           -5.6114    13.4407     0.1208 C.3     
  27 C27           -0.8578    14.4123     0.7359 C.3     
  28 Cl28           2.6607     4.4090     0.0052 Cl      
  29 H29            2.1296     1.6167     0.0190 H       
  30 H30           -2.1601     1.5564     0.0797 H       
  31 H31            2.8165     8.5723    -0.0004 H       
  32 H32            2.0794    10.8858     0.0084 H       
  33 H33           -2.9203     9.1933     0.0030 H       
  34 H34           -4.6863    10.8870    -0.0698 H       
  35 H35           -6.0614    13.4435     1.1136 H       
  36 H36           -5.6233    14.4518    -0.2863 H       
  37 H37           -6.1788    12.7789    -0.5335 H       
  38 H38           -0.4834    14.7720    -0.2225 H       
  39 H39           -1.2565    15.2502     1.3078 H       
  40 H40           -0.0443    13.9470     1.2923 H       
@<TRIPOS>BOND
   1    1    2 1
   2    1    8 3
   3    2    3 ar
   4    2    7 ar
   5    3    4 ar
   6    3   29 1
   7    4    5 ar
   8    4   28 1
   9    5    6 ar
  10    5   17 1
  11    6    7 ar
  12    6    9 1
  13    7   30 1
  14   10   11 ar
  15   10   15 ar
  16   10   19 1
  17   11   12 ar
  18   11   16 1
  19   12   13 ar
  20   12   18 1
  21   13   14 ar
  22   13   31 1
  23   14   15 ar
  24   14   32 1
  25   16   17 1
  26   17   18 2
  27   19   22 1
  28   19   33 1
  29   20   21 ar
  30   20   25 ar
  31   20   27 1
  32   21   22 ar
  33   22   23 ar
  34   23   24 ar
  35   23   34 1
  36   24   25 ar
  37   24   26 1
  38   26   35 1
  39   26   36 1
  40   26   37 1
  41   27   38 1
  42   27   39 1
  43   27   40 1

#	End of record

