#	Name: ASD02560516
#	Creating user name:	WinNT
#	Creation time:	15. 06. 2019 20:25

#	Modifying user name:	WinNT
#	Modification time:	15. 06. 2019 20:25

#	Program:	/corina/corina34_cracker 3.40 0067  02.08.2006

@<TRIPOS>MOLECULE
ASD02560516
  54   58    0    0    0
SMALL
NO_CHARGES


@<TRIPOS>ATOM
   1 C1             0.7685     2.3485     0.4337 C.2     
   2 C2             0.6769     1.2363     1.2838 C.2     
   3 C3             1.6670     0.3085     1.3055 C.2     
   4 N4             2.7666     0.4464     0.4992 N.pl3   
   5 C5             2.8795     1.5287    -0.3435 C.2     
   6 C6             1.8547     2.4975    -0.3725 C.2     
   7 C7             3.8861    -0.3236     0.3260 C.2     
   8 C8             4.6610     0.3075    -0.6221 C.2     
   9 N9             4.0201     1.4284    -1.0067 N.2     
  10 C10            5.9708    -0.1636    -1.1296 C.ar    
  11 N11            4.1845    -1.5178     0.9838 N.3     
  12 C12            5.2856    -1.3320     1.9384 C.3     
  13 C13            6.1309    -1.4898    -1.5291 C.ar    
  14 C14            7.0483     0.7198    -1.2150 C.ar    
  15 C15            4.7135    -1.1121     3.3403 C.3     
  16 C16            6.1747    -2.5771     1.9399 C.3     
  17 C17            7.3215    -2.3836     2.9341 C.3     
  18 C18            6.7494    -2.1637     4.3360 C.3     
  19 C19            5.8603    -0.9186     4.3345 C.3     
  20 O20            1.5680    -0.7613     2.1304 O.3     
  21 C21            7.3535    -1.9229    -2.0009 C.ar    
  22 C22            8.4194    -1.0447    -2.0777 C.ar    
  23 C23            8.2661     0.2742    -1.6888 C.ar    
  24 Cl24           6.8571     2.3749    -0.7274 Cl      
  25 C25            1.1919    -1.9503     1.5907 C.ar    
  26 C26            1.1790    -3.0959     2.3736 C.ar    
  27 C27            0.8147    -2.0200     0.2571 C.ar    
  28 C28            0.4329    -3.2300    -0.2891 C.ar    
  29 C29            0.4259    -4.3710     0.4919 C.ar    
  30 C30            0.7963    -4.3034     1.8224 C.ar    
  31 H31           -0.0235     3.0826     0.4158 H       
  32 H32           -0.1849     1.1182     1.9239 H       
  33 H33            1.9317     3.3515    -1.0292 H       
  34 H34            3.3674    -1.8918     1.4426 H       
  35 H35            5.8766    -0.4638     1.6468 H       
  36 H36            5.2999    -2.1770    -1.4691 H       
  37 H37            4.0800    -0.2251     3.3392 H       
  38 H38            4.1225    -1.9803     3.6318 H       
  39 H39            5.5837    -3.4453     2.2315 H       
  40 H40            6.5823    -2.7338     0.9412 H       
  41 H41            7.9549    -3.2707     2.9352 H       
  42 H42            7.9125    -1.5155     2.6426 H       
  43 H43            6.1584    -3.0319     4.6276 H       
  44 H44            7.5664    -2.0259     5.0443 H       
  45 H45            6.4513    -0.0504     4.0429 H       
  46 H46            5.4527    -0.7620     5.3332 H       
  47 H47            7.4783    -2.9500    -2.3106 H       
  48 H48            9.3742    -1.3890    -2.4470 H       
  49 H49            9.1020     0.9553    -1.7514 H       
  50 H50            1.4682    -3.0436     3.4128 H       
  51 H51            0.8193    -1.1289    -0.3531 H       
  52 H52            0.1392    -3.2847    -1.3269 H       
  53 H53            0.1264    -5.3159     0.0631 H       
  54 H54            0.7903    -5.1961     2.4302 H       
@<TRIPOS>BOND
   1    1    2 1
   2    1    6 2
   3    1   31 1
   4    2    3 2
   5    2   32 1
   6    3    4 1
   7    3   20 1
   8    4    5 1
   9    4    7 1
  10    5    6 1
  11    5    9 2
  12    6   33 1
  13    7    8 2
  14    7   11 1
  15    8    9 1
  16    8   10 1
  17   10   13 ar
  18   10   14 ar
  19   11   12 1
  20   11   34 1
  21   12   16 1
  22   12   15 1
  23   12   35 1
  24   13   21 ar
  25   13   36 1
  26   14   24 1
  27   14   23 ar
  28   15   19 1
  29   15   37 1
  30   15   38 1
  31   16   17 1
  32   16   39 1
  33   16   40 1
  34   17   18 1
  35   17   41 1
  36   17   42 1
  37   18   19 1
  38   18   43 1
  39   18   44 1
  40   19   45 1
  41   19   46 1
  42   20   25 1
  43   21   22 ar
  44   21   47 1
  45   22   23 ar
  46   22   48 1
  47   23   49 1
  48   25   26 ar
  49   25   27 ar
  50   26   30 ar
  51   26   50 1
  52   27   28 ar
  53   27   51 1
  54   28   29 ar
  55   28   52 1
  56   29   30 ar
  57   29   53 1
  58   30   54 1

#	End of record

