#	Name: ASD00450017
#	Creating user name:	WinNT
#	Creation time:	15. 06. 2019 18:36

#	Modifying user name:	WinNT
#	Modification time:	15. 06. 2019 18:36

#	Program:	/corina/corina34_cracker 3.40 0067  02.08.2006

@<TRIPOS>MOLECULE
ASD00450017
  57   62    0    0    0
SMALL
NO_CHARGES


@<TRIPOS>ATOM
   1 Cl1            4.3973     5.9683    -1.7231 Cl      
   2 C2             0.0679     1.5009     0.0135 C.ar    
   3 C3             0.1780     0.1228    -0.0062 C.ar    
   4 C4             1.4248    -0.4726    -0.0557 C.ar    
   5 C5             2.5693     0.3109    -0.0862 C.ar    
   6 O6             3.7941    -0.2767    -0.1353 O.3     
   7 C7             4.1145    -0.9902    -1.2444 C.ar    
   8 C8             5.3951    -1.5188    -1.3767 C.ar    
   9 C9             5.7190    -2.2420    -2.5016 C.ar    
  10 C10            4.7363    -2.4300    -3.4990 C.ar    
  11 N11            4.8308    -3.0944    -4.6675 N.2     
  12 C12            3.7900    -3.1311    -5.4240 C.2     
  13 N13            3.7267    -3.7715    -6.6514 N.am    
  14 C14            2.5838    -3.7487    -7.3653 C.2     
  15 O15            1.6107    -3.1678    -6.9336 O.2     
  16 C16            2.5150    -4.4450    -8.7000 C.3     
  17 C17            1.1895    -4.3828    -9.4617 C.3     
  18 C18            2.3904    -3.5691    -9.9482 C.3     
  19 S19            2.4601    -2.2548    -4.6801 S.3     
  20 C20            3.4734    -1.8666    -3.2905 C.ar    
  21 N21            3.2073    -1.1797    -2.1828 N.ar    
  22 C22            2.4638     1.6933    -0.0670 C.ar    
  23 C23            1.2128     2.2907    -0.0169 C.ar    
  24 N24            1.1026     3.6858     0.0026 N.am    
  25 C25            2.0882     4.4469    -0.5129 C.2     
  26 O26            3.0240     3.9235    -1.0859 O.2     
  27 C27            2.0314     5.9174    -0.3817 C.ar    
  28 C28            0.9584     6.5219     0.2755 C.ar    
  29 C29            0.9114     7.8954     0.3945 C.ar    
  30 C30            1.9244     8.6747    -0.1361 C.ar    
  31 C31            2.9910     8.0837    -0.7888 C.ar    
  32 C32            3.0544     6.7094    -0.9100 C.ar    
  33 C33            4.0892     8.9408    -1.3637 C.3     
  34 C34            3.9657    10.4561    -1.1924 C.3     
  35 C35            5.0004     9.6761    -0.3789 C.3     
  36 C36            4.6948     8.4449    -2.6104 C.1     
  37 N37            5.1621     8.0621    -3.5725 N.1     
  38 F38           -1.1516     2.0806     0.0567 F       
  39 H39           -0.7114    -0.4895     0.0174 H       
  40 H40            1.5079    -1.5493    -0.0703 H       
  41 H41            6.1303    -1.3619    -0.6013 H       
  42 H42            6.7083    -2.6588    -2.6202 H       
  43 H43            4.5050    -4.2362    -6.9968 H       
  44 H44            3.1010    -5.3603    -8.7835 H       
  45 H45            0.9037    -5.2571   -10.0467 H       
  46 H46            0.3673    -3.8383    -8.9975 H       
  47 H47            2.3582    -2.4891    -9.8040 H       
  48 H48            2.8946    -3.9079   -10.8532 H       
  49 H49            3.3542     2.3041    -0.0903 H       
  50 H50            0.3168     4.1049     0.3871 H       
  51 H51            0.1664     5.9155     0.6897 H       
  52 H52            0.0816     8.3638     0.9028 H       
  53 H53            1.8816     9.7496    -0.0404 H       
  54 H54            4.3332    11.0858    -2.0026 H       
  55 H55            3.0901    10.8331    -0.6638 H       
  56 H56            4.8056     9.5399     0.6849 H       
  57 H57            6.0487     9.7926    -0.6539 H       
@<TRIPOS>BOND
   1    1   32 1
   2    2    3 ar
   3    2   23 ar
   4    2   38 1
   5    3    4 ar
   6    3   39 1
   7    4    5 ar
   8    4   40 1
   9    5    6 1
  10    5   22 ar
  11    6    7 1
  12    7    8 ar
  13    7   21 ar
  14    8    9 ar
  15    8   41 1
  16    9   10 ar
  17    9   42 1
  18   10   11 1
  19   10   20 ar
  20   11   12 2
  21   12   13 1
  22   12   19 1
  23   13   14 am
  24   13   43 1
  25   14   15 2
  26   14   16 1
  27   16   17 1
  28   16   18 1
  29   16   44 1
  30   17   18 1
  31   17   45 1
  32   17   46 1
  33   18   47 1
  34   18   48 1
  35   19   20 1
  36   20   21 ar
  37   22   23 ar
  38   22   49 1
  39   23   24 1
  40   24   25 am
  41   24   50 1
  42   25   26 2
  43   25   27 1
  44   27   28 ar
  45   27   32 ar
  46   28   29 ar
  47   28   51 1
  48   29   30 ar
  49   29   52 1
  50   30   31 ar
  51   30   53 1
  52   31   32 ar
  53   31   33 1
  54   33   34 1
  55   33   35 1
  56   33   36 1
  57   34   35 1
  58   34   54 1
  59   34   55 1
  60   35   56 1
  61   35   57 1
  62   36   37 3

#	End of record

