#	Name: ASD04590661
#	Creating user name:	WinNT
#	Creation time:	15. 06. 2019 20:51

#	Modifying user name:	WinNT
#	Modification time:	15. 06. 2019 20:51

#	Program:	/corina/corina34_cracker 3.40 0067  02.08.2006

@<TRIPOS>MOLECULE
ASD04590661
  35   38    0    0    0
SMALL
NO_CHARGES


@<TRIPOS>ATOM
   1 N1            -0.0158     1.3161     0.0093 N.ar    
   2 C2             0.0021    -0.0041     0.0020 C.ar    
   3 N3             1.1208    -0.6971    -0.0120 N.ar    
   4 C4             2.2999    -0.0814    -0.0199 C.ar    
   5 C5             2.3204     1.3295    -0.0130 C.ar    
   6 C6             1.1078     2.0152     0.0023 C.ar    
   7 N7             3.5946    -0.5240    -0.0342 N.pl3   
   8 C8             4.4860     0.5595    -0.0371 C.2     
   9 C9             3.7265     1.7196    -0.0242 C.2     
  10 S10           -1.5314    -0.8718     0.0120 S.o2    
  11 C11            3.9944    -1.9334    -0.0451 C.3     
  12 C12            4.8219    -2.2368    -1.3064 C.3     
  13 C13            6.2075    -2.7106    -0.8211 C.3     
  14 C14            5.9480    -3.2383     0.6119 C.3     
  15 C15            4.9060    -2.2333     1.1627 C.3     
  16 C16            5.8561     0.8175    -0.0491 C.2     
  17 N17            6.2623     2.0469    -0.0470 N.2     
  18 S18            4.8911     3.0459    -0.0279 S.3     
  19 O19           -2.4397     0.0290     0.6308 O.2     
  20 C20           -1.9421    -1.0852    -1.7420 C.3     
  21 O21           -1.2216    -2.1242     0.6076 O.2     
  22 H22            1.0851     3.0949     0.0076 H       
  23 H23            3.1115    -2.5719    -0.0152 H       
  24 H24            4.3411    -3.0232    -1.8882 H       
  25 H25            4.9260    -1.3355    -1.9105 H       
  26 H26            6.5826    -3.5101    -1.4599 H       
  27 H27            6.9096    -1.8771    -0.7993 H       
  28 H28            5.5347    -4.2465     0.5833 H       
  29 H29            6.8621    -3.2110     1.2050 H       
  30 H30            5.3979    -1.3228     1.5048 H       
  31 H31            4.3314    -2.6846     1.9716 H       
  32 H32            6.5672     0.0048    -0.0595 H       
  33 H33           -1.1544    -1.6568    -2.2326 H       
  34 H34           -2.8881    -1.6194    -1.8312 H       
  35 H35           -2.0308    -0.1077    -2.2159 H       
@<TRIPOS>BOND
   1    1    2 ar
   2    1    6 ar
   3    2    3 ar
   4    2   10 1
   5    3    4 ar
   6    4    5 ar
   7    4    7 1
   8    5    6 ar
   9    5    9 1
  10    6   22 1
  11    7    8 1
  12    7   11 1
  13    8    9 2
  14    8   16 1
  15    9   18 1
  16   10   19 2
  17   10   20 1
  18   10   21 2
  19   11   12 1
  20   11   15 1
  21   11   23 1
  22   12   13 1
  23   12   24 1
  24   12   25 1
  25   13   14 1
  26   13   26 1
  27   13   27 1
  28   14   15 1
  29   14   28 1
  30   14   29 1
  31   15   30 1
  32   15   31 1
  33   16   17 2
  34   16   32 1
  35   17   18 1
  36   20   33 1
  37   20   34 1
  38   20   35 1

#	End of record

