#	Name: ASD01230012
#	Creating user name:	WinNT
#	Creation time:	15. 06. 2019 19:11

#	Modifying user name:	WinNT
#	Modification time:	15. 06. 2019 19:11

#	Program:	/corina/corina34_cracker 3.40 0067  02.08.2006

@<TRIPOS>MOLECULE
ASD01230012
  48   50    0    0    0
SMALL
NO_CHARGES


@<TRIPOS>ATOM
   1 C1            -1.6005     1.7638     0.9177 C.3     
   2 C2            -1.7331     0.2654     1.1975 C.3     
   3 C3            -3.1964    -0.0709     1.4918 C.3     
   4 S4            -1.1771    -0.6720    -0.2526 S.o2    
   5 O5            -2.0665    -0.4769    -1.3435 O.2     
   6 O6             0.2280    -0.5432    -0.4209 O.2     
   7 N7            -1.3938    -2.2578     0.1725 N.am    
   8 C8            -1.5152    -3.4672     2.3307 C.3     
   9 C9            -0.6003    -2.8403     1.2574 C.3     
  10 C10            0.2046    -4.0579     0.7556 C.3     
  11 C11            0.2197    -5.0288     1.9171 C.ar    
  12 C12            1.0339    -6.1200     2.1597 C.ar    
  13 C13            0.8602    -6.8782     3.3140 C.ar    
  14 C14           -0.1373    -6.5320     4.2233 C.ar    
  15 C15           -0.9442    -5.4423     3.9736 C.ar    
  16 C16           -0.7691    -4.6894     2.8229 C.ar    
  17 C17            1.7328    -8.0500     3.5747 C.ar    
  18 C18            2.7303    -8.3946     2.6625 C.ar    
  19 C19            3.5449    -9.4847     2.9013 C.ar    
  20 C20            3.3787   -10.2411     4.0434 C.ar    
  21 C21            2.3826    -9.9066     4.9669 C.ar    
  22 C22            1.5608    -8.8020     4.7310 C.ar    
  23 C23            2.2045   -10.7128     6.1854 C.2     
  24 O24            1.3405   -10.4210     6.9845 O.2     
  25 C25            3.0960   -11.9009     6.4398 C.3     
  26 H26           -1.9346     2.3270     1.7891 H       
  27 H27           -0.5580     2.0034     0.7080 H       
  28 H28           -2.2144     2.0283     0.0568 H       
  29 H29           -1.1192     0.0008     2.0584 H       
  30 H30           -3.5075     0.4315     2.4078 H       
  31 H31           -3.8201     0.2649     0.6634 H       
  32 H32           -3.3040    -1.1487     1.6141 H       
  33 H33           -2.0462    -2.8009    -0.2969 H       
  34 H34           -1.6733    -2.7654     3.1496 H       
  35 H35           -2.4693    -3.7581     1.8913 H       
  36 H36            0.0581    -2.0920     1.6986 H       
  37 H37           -0.2877    -4.5073    -0.1067 H       
  38 H38            1.2210    -3.7595     0.4989 H       
  39 H39            1.8057    -6.3845     1.4522 H       
  40 H40           -0.2783    -7.1159     5.1209 H       
  41 H41           -1.7175    -5.1742     4.6782 H       
  42 H42            2.8660    -7.8074     1.7663 H       
  43 H43            4.3150    -9.7461     2.1907 H       
  44 H44            4.0181   -11.0925     4.2242 H       
  45 H45            0.7926    -8.5358     5.4419 H       
  46 H46            3.9757   -11.5819     6.9988 H       
  47 H47            2.5503   -12.6478     7.0163 H       
  48 H48            3.4069   -12.3322     5.4883 H       
@<TRIPOS>BOND
   1    1    2 1
   2    1   26 1
   3    1   27 1
   4    1   28 1
   5    2    3 1
   6    2    4 1
   7    2   29 1
   8    3   30 1
   9    3   31 1
  10    3   32 1
  11    4    5 2
  12    4    6 2
  13    4    7 am
  14    7    9 1
  15    7   33 1
  16    8    9 1
  17    8   16 1
  18    8   34 1
  19    8   35 1
  20    9   10 1
  21    9   36 1
  22   10   11 1
  23   10   37 1
  24   10   38 1
  25   11   12 ar
  26   11   16 ar
  27   12   13 ar
  28   12   39 1
  29   13   14 ar
  30   13   17 1
  31   14   15 ar
  32   14   40 1
  33   15   16 ar
  34   15   41 1
  35   17   18 ar
  36   17   22 ar
  37   18   19 ar
  38   18   42 1
  39   19   20 ar
  40   19   43 1
  41   20   21 ar
  42   20   44 1
  43   21   22 ar
  44   21   23 1
  45   22   45 1
  46   23   24 2
  47   23   25 1
  48   25   46 1
  49   25   47 1
  50   25   48 1

#	End of record

