#	Name: ASD00780006
#	Creating user name:	WinNT
#	Creation time:	15. 06. 2019 18:37

#	Modifying user name:	WinNT
#	Modification time:	15. 06. 2019 18:37

#	Program:	/corina/corina34_cracker 3.40 0067  02.08.2006

@<TRIPOS>MOLECULE
ASD00780006
  38   39    0    0    0
SMALL
NO_CHARGES


@<TRIPOS>ATOM
   1 O1            -0.0143     1.3341     0.2270 O.3     
   2 O2             1.0549    -0.6108     0.2980 O.2     
   3 O3            -4.9804     1.1377     0.2095 O.2     
   4 O4            -6.0040    -0.6959     0.0073 O.2     
   5 N5            -0.0414    -2.8440    -0.0558 N.pl3   
   6 N6            -4.9599    -0.0746     0.0928 N.pl3   
   7 C7             1.4167    -4.8069    -0.1040 C.3     
   8 C8            -0.0294    -4.3089    -0.0610 C.3     
   9 C9             1.4292    -6.3369    -0.1094 C.3     
  10 C10            2.8536    -6.8274    -0.1518 C.ar    
  11 C11           -1.2489    -2.1599    -0.0190 C.ar    
  12 C12           -1.2646    -0.7624     0.1158 C.ar    
  13 C13           -2.4484    -2.8539    -0.1210 C.ar    
  14 C14            3.5411    -7.0563     1.0254 C.ar    
  15 C15            3.4707    -7.0538    -1.3679 C.ar    
  16 C16           -2.4877    -0.0864     0.1516 C.ar    
  17 C17           -3.6661    -0.7926     0.0547 C.ar    
  18 C18           -3.6469    -2.1718    -0.0841 C.ar    
  19 C19            4.8476    -7.5061     0.9865 C.ar    
  20 C20            4.7772    -7.5037    -1.4068 C.ar    
  21 C21            5.4664    -7.7276    -0.2297 C.ar    
  22 C22           -0.0005    -0.0135     0.2194 C.2     
  23 H23            1.9018    -4.4364    -1.0071 H       
  24 H24            1.9528    -4.4423     0.7722 H       
  25 H25           -0.5145    -4.6795     0.8421 H       
  26 H26           -0.5655    -4.6736    -0.9372 H       
  27 H27            0.9441    -6.7074     0.7936 H       
  28 H28            0.8931    -6.7015    -0.9856 H       
  29 H29            0.7943    -2.3520    -0.0781 H       
  30 H30           -2.4424    -3.9285    -0.2293 H       
  31 H31            3.0576    -6.8833     1.9755 H       
  32 H32            2.9319    -6.8795    -2.2876 H       
  33 H33           -2.5086     0.9884     0.2554 H       
  34 H34           -4.5764    -2.7158    -0.1645 H       
  35 H35            5.3850    -7.6843     1.9062 H       
  36 H36            5.2592    -7.6809    -2.3569 H       
  37 H37            6.4873    -8.0787    -0.2601 H       
  38 H38            0.8402     1.7815     0.2966 H       
@<TRIPOS>BOND
   1    1   22 1
   2    1   38 1
   3    2   22 2
   4    3    6 2
   5    4    6 2
   6    5    8 1
   7    5   11 1
   8    5   29 1
   9    6   17 1
  10    7    8 1
  11    7    9 1
  12    7   23 1
  13    7   24 1
  14    8   25 1
  15    8   26 1
  16    9   10 1
  17    9   27 1
  18    9   28 1
  19   10   14 ar
  20   10   15 ar
  21   11   12 ar
  22   11   13 ar
  23   12   16 ar
  24   12   22 1
  25   13   18 ar
  26   13   30 1
  27   14   19 ar
  28   14   31 1
  29   15   20 ar
  30   15   32 1
  31   16   17 ar
  32   16   33 1
  33   17   18 ar
  34   18   34 1
  35   19   21 ar
  36   19   35 1
  37   20   21 ar
  38   20   36 1
  39   21   37 1

#	End of record

