#	Name: ASD01030042
#	Creating user name:	WinNT
#	Creation time:	15. 06. 2019 18:58

#	Modifying user name:	WinNT
#	Modification time:	15. 06. 2019 18:58

#	Program:	/corina/corina34_cracker 3.40 0067  02.08.2006

@<TRIPOS>MOLECULE
ASD01030042
  34   36    0    0    0
SMALL
NO_CHARGES


@<TRIPOS>ATOM
   1 C1            -0.0167     1.3820     0.0096 C.ar    
   2 C2             0.0021    -0.0041     0.0020 C.ar    
   3 C3             1.2081    -0.6965    -0.0132 C.ar    
   4 C4             2.4056    -0.0056    -0.0210 C.ar    
   5 C5             2.3940     1.3949    -0.0134 C.ar    
   6 C6             1.1738     2.0921     0.0021 C.ar    
   7 O7            -1.1681    -0.6922     0.0100 O.3     
   8 O8             3.5836    -0.6794    -0.0354 O.3     
   9 C9            -1.0819    -2.1186     0.0015 C.3     
  10 O10            1.1731     3.4420     0.0090 O.3     
  11 C11            3.6461     2.1702    -0.0219 C.2     
  12 C12            3.5386     3.5811    -0.0138 C.2     
  13 C13            2.3076     4.1597     0.0014 C.2     
  14 C14            2.2159     5.6319     0.0091 C.ar    
  15 C15            0.9649     6.2559     0.0241 C.ar    
  16 C16            0.8846     7.6347     0.0318 C.ar    
  17 C17            2.0494     8.4010     0.0241 C.ar    
  18 C18            3.2912     7.7818     0.0093 C.ar    
  19 C19            3.3790     6.4060     0.0073 C.ar    
  20 O20            4.7341     1.6173    -0.0349 O.2     
  21 O21            1.9684     9.7570     0.0308 O.3     
  22 O22           -0.3307     8.2450     0.0464 O.3     
  23 H23           -0.9594     1.9089     0.0170 H       
  24 H24            1.2092    -1.7765    -0.0187 H       
  25 H25            3.9167    -0.8703    -0.9229 H       
  26 H26           -2.0857    -2.5433     0.0092 H       
  27 H27           -0.5560    -2.4455    -0.8956 H       
  28 H28           -0.5383    -2.4550     0.8843 H       
  29 H29            4.4276     4.1942    -0.0198 H       
  30 H30            0.0634     5.6612     0.0293 H       
  31 H31            4.1910     8.3790     0.0030 H       
  32 H32            4.3467     5.9266    -0.0001 H       
  33 H33            1.9533    10.1458     0.9161 H       
  34 H34           -0.6738     8.4170     0.9339 H       
@<TRIPOS>BOND
   1    1    2 ar
   2    1    6 ar
   3    1   23 1
   4    2    3 ar
   5    2    7 1
   6    3    4 ar
   7    3   24 1
   8    4    5 ar
   9    4    8 1
  10    5    6 ar
  11    5   11 1
  12    6   10 1
  13    7    9 1
  14    8   25 1
  15    9   26 1
  16    9   27 1
  17    9   28 1
  18   10   13 1
  19   11   12 1
  20   11   20 2
  21   12   13 2
  22   12   29 1
  23   13   14 1
  24   14   15 ar
  25   14   19 ar
  26   15   16 ar
  27   15   30 1
  28   16   17 ar
  29   16   22 1
  30   17   18 ar
  31   17   21 1
  32   18   19 ar
  33   18   31 1
  34   19   32 1
  35   21   33 1
  36   22   34 1

#	End of record

