#	Name: ASD01900774
#	Creating user name:	WinNT
#	Creation time:	15. 06. 2019 19:52

#	Modifying user name:	WinNT
#	Modification time:	15. 06. 2019 19:52

#	Program:	/corina/corina34_cracker 3.40 0067  02.08.2006

@<TRIPOS>MOLECULE
ASD01900774
  53   57    0    0    0
SMALL
NO_CHARGES


@<TRIPOS>ATOM
   1 C1            -0.0184     1.4085     0.1338 C.ar    
   2 C2            -0.0083     0.0180     0.1228 C.ar    
   3 C3             1.1888    -0.6776     0.0636 C.ar    
   4 C4             2.3901     0.0139     0.0142 C.ar    
   5 C5             2.3726     1.4163     0.0295 C.ar    
   6 O6             3.5627    -0.6517    -0.0554 O.3     
   7 C7             4.7362    -0.0444     0.1912 C.2     
   8 C8             4.8725     1.3026     0.2216 C.2     
   9 C9             3.6736     2.1298    -0.0107 C.2     
  10 C10            5.9268    -0.8813     0.4400 C.2     
  11 N11            7.1414    -0.2923     0.6953 N.2     
  12 C12            8.2825    -0.8683     0.4558 C.2     
  13 C13            8.2383    -2.2564    -0.1188 C.3     
  14 C14            7.0833    -2.9628     0.6481 C.3     
  15 C15            5.8223    -2.2446     0.4226 C.2     
  16 C16            1.1692     2.1086     0.0874 C.ar    
  17 S17            9.5827    -3.3350     0.5064 S.3     
  18 C18            8.5676    -4.8038     0.5987 C.2     
  19 C19            7.2901    -4.4061     0.6508 C.2     
  20 O20           -1.1817    -0.6642     0.1708 O.3     
  21 C21           -2.3808     0.1109     0.2311 C.3     
  22 C22           -3.5907    -0.8243     0.2789 C.3     
  23 N23           -3.5638    -1.5964     1.5283 N.3     
  24 C24           -4.8239    -2.3283     1.7226 C.3     
  25 C25           -4.7304    -3.1639     3.0020 C.3     
  26 O26           -4.4272    -2.3055     4.1050 O.3     
  27 C27           -3.2060    -1.5777     3.9494 C.3     
  28 C28           -3.2841    -0.7260     2.6796 C.3     
  29 N29            3.7524     3.4188    -0.2397 N.2     
  30 O30            2.5927     4.1455    -0.6030 O.3     
  31 H31           -0.9572     1.9408     0.1743 H       
  32 H32            1.1863    -1.7576     0.0564 H       
  33 H33            5.8329     1.7588     0.4112 H       
  34 H34            9.2195    -0.3716     0.6603 H       
  35 H35            8.1225    -2.2684    -1.2026 H       
  36 H36            7.3286    -2.6939     1.6756 H       
  37 H37            4.8857    -2.7540     0.2500 H       
  38 H38            1.1638     3.1886     0.0955 H       
  39 H39            8.9201    -5.8246     0.6099 H       
  40 H40            6.4691    -5.1065     0.6925 H       
  41 H41           -2.3667     0.7328     1.1261 H       
  42 H42           -2.4474     0.7464    -0.6520 H       
  43 H43           -4.5070    -0.2356     0.2352 H       
  44 H44           -3.5564    -1.5065    -0.5706 H       
  45 H45           -5.6469    -1.6190     1.8105 H       
  46 H46           -4.9983    -2.9854     0.8706 H       
  47 H47           -5.6825    -3.6637     3.1807 H       
  48 H48           -3.9423    -3.9090     2.8933 H       
  49 H49           -3.0556    -0.9302     4.8132 H       
  50 H50           -2.3735    -2.2766     3.8682 H       
  51 H51           -2.3344    -0.2135     2.5261 H       
  52 H52           -4.0825     0.0089     2.7827 H       
  53 H53            2.7496     5.0882    -0.7511 H       
@<TRIPOS>BOND
   1    1    2 ar
   2    1   16 ar
   3    1   31 1
   4    2    3 ar
   5    2   20 1
   6    3    4 ar
   7    3   32 1
   8    4    5 ar
   9    4    6 1
  10    5   16 ar
  11    5    9 1
  12    6    7 1
  13    7    8 2
  14    7   10 1
  15    8    9 1
  16    8   33 1
  17    9   29 2
  18   10   11 1
  19   10   15 2
  20   11   12 2
  21   12   13 1
  22   12   34 1
  23   13   14 1
  24   13   17 1
  25   13   35 1
  26   14   15 1
  27   14   19 1
  28   14   36 1
  29   15   37 1
  30   16   38 1
  31   17   18 1
  32   18   19 2
  33   18   39 1
  34   19   40 1
  35   20   21 1
  36   21   22 1
  37   21   41 1
  38   21   42 1
  39   22   23 1
  40   22   43 1
  41   22   44 1
  42   23   24 1
  43   23   28 1
  44   24   25 1
  45   24   45 1
  46   24   46 1
  47   25   26 1
  48   25   47 1
  49   25   48 1
  50   26   27 1
  51   27   28 1
  52   27   49 1
  53   27   50 1
  54   28   51 1
  55   28   52 1
  56   29   30 1
  57   30   53 1

#	End of record

