#	Name: ASD04882582
#	Creating user name:	WinNT
#	Creation time:	15. 06. 2019 20:55

#	Modifying user name:	WinNT
#	Modification time:	15. 06. 2019 20:55

#	Program:	/corina/corina34_cracker 3.40 0067  02.08.2006

@<TRIPOS>MOLECULE
ASD04882582
  78   82    0    0    0
SMALL
NO_CHARGES


@<TRIPOS>ATOM
   1 C1             0.2962     1.1242    -0.7941 C.ar    
   2 C2             0.1234    -0.2095    -0.4134 C.ar    
   3 C3            -1.1117    -0.6474     0.0509 C.ar    
   4 C4            -2.1691     0.2308     0.1374 C.ar    
   5 C5            -2.0033     1.5657    -0.2421 C.ar    
   6 C6            -0.7609     2.0100    -0.7033 C.ar    
   7 N7             1.1897    -1.1009    -0.4997 N.3     
   8 C8             1.5125    -1.6650     0.8184 C.3     
   9 C9             0.9074    -2.1672    -1.4708 C.3     
  10 C10            2.1312    -3.0779    -1.5945 C.3     
  11 N11            2.4541    -3.6419    -0.2764 N.3     
  12 C12            2.7364    -2.5757     0.6947 C.3     
  13 C13           -3.1363     2.5061    -0.1497 C.2     
  14 O14           -2.9308     3.7040    -0.1145 O.2     
  15 N15           -4.3991     2.0373    -0.1043 N.am    
  16 N16            1.5413     1.5641    -1.2618 N.am    
  17 C17            3.5236    -4.5361    -0.3630 C.ar    
  18 C18            4.7585    -4.1014    -0.8269 C.ar    
  19 C19            5.8142    -4.9882    -0.9108 C.ar    
  20 C20            5.6426    -6.3074    -0.5340 C.ar    
  21 C21            4.4142    -6.7435    -0.0716 C.ar    
  22 C22            3.3562    -5.8610     0.0202 C.ar    
  23 C23            1.9018     2.8535    -1.1078 C.2     
  24 C24            3.2488     3.2895    -1.4919 C.2     
  25 C25            4.2380     2.5104    -2.0153 C.2     
  26 N26            5.3000     3.2959    -2.2220 N.2     
  27 C27            5.0069     4.5135    -1.8510 C.2     
  28 O28            3.7485     4.5440    -1.4010 O.3     
  29 O29            1.1099     3.6563    -0.6500 O.2     
  30 C30            5.9374     5.6967    -1.9238 C.3     
  31 C31            7.2453     5.6164    -1.1341 C.3     
  32 C32            7.2651     5.5070    -2.6600 C.3     
  33 C33            2.0183    -6.3370     0.5246 C.3     
  34 C34           -4.6488     0.5961    -0.1861 C.3     
  35 C35           -4.8347     0.0300     1.2231 C.3     
  36 C36           -5.5220     2.9690     0.0268 C.3     
  37 C37           -4.9954     4.4056     0.0269 C.3     
  38 C38           -6.4829     2.7782    -1.1484 C.3     
  39 C39           -6.2603     2.6964     1.3388 C.3     
  40 H40           -1.2423    -1.6786     0.3441 H       
  41 H41           -3.1273    -0.1125     0.4985 H       
  42 H42           -0.6298     3.0409    -0.9973 H       
  43 H43            1.7299    -0.8566     1.5165 H       
  44 H44            0.6642    -2.2435     1.1841 H       
  45 H45            0.0522    -2.7514    -1.1311 H       
  46 H46            0.6836    -1.7250    -2.4416 H       
  47 H47            1.9139    -3.8863    -2.2926 H       
  48 H48            2.9796    -2.4994    -1.9602 H       
  49 H49            3.5916    -1.9915     0.3550 H       
  50 H50            2.9602    -3.0179     1.6655 H       
  51 H51            2.1440     0.9406    -1.6965 H       
  52 H52            4.8930    -3.0713    -1.1221 H       
  53 H53            6.7747    -4.6508    -1.2714 H       
  54 H54            6.4694    -6.9988    -0.6012 H       
  55 H55            4.2834    -7.7747     0.2216 H       
  56 H56            4.1752     1.4527    -2.2244 H       
  57 H57            5.4542     6.6708    -1.9996 H       
  58 H58            7.6229     6.5378    -0.6907 H       
  59 H59            7.4328     4.7079    -0.5619 H       
  60 H60            7.4656     4.5264    -3.0917 H       
  61 H61            7.6556     6.3563    -3.2205 H       
  62 H62            1.9747    -6.2174     1.6072 H       
  63 H63            1.2255    -5.7494     0.0619 H       
  64 H64            1.8871    -7.3887     0.2697 H       
  65 H65           -5.5503     0.4162    -0.7717 H       
  66 H66           -3.8007     0.1070    -0.6651 H       
  67 H67           -5.0205    -1.0424     1.1623 H       
  68 H68           -3.9332     0.2098     1.8088 H       
  69 H69           -5.6829     0.5191     1.7022 H       
  70 H70           -4.4694     4.5998    -0.9078 H       
  71 H71           -5.8309     5.0988     0.1244 H       
  72 H72           -4.3108     4.5416     0.8641 H       
  73 H73           -6.8581     1.7548    -1.1484 H       
  74 H74           -7.3184     3.4714    -1.0508 H       
  75 H75           -5.9569     2.9724    -2.0831 H       
  76 H76           -5.5757     2.8324     2.1761 H       
  77 H77           -7.0958     3.3897     1.4364 H       
  78 H78           -6.6355     1.6730     1.3388 H       
@<TRIPOS>BOND
   1    1    2 ar
   2    1   16 1
   3    1    6 ar
   4    2    3 ar
   5    2    7 1
   6    3    4 ar
   7    3   40 1
   8    4    5 ar
   9    4   41 1
  10    5    6 ar
  11    5   13 1
  12    6   42 1
  13    7    8 1
  14    7    9 1
  15    8   12 1
  16    8   43 1
  17    8   44 1
  18    9   10 1
  19    9   45 1
  20    9   46 1
  21   10   11 1
  22   10   47 1
  23   10   48 1
  24   11   12 1
  25   11   17 1
  26   12   49 1
  27   12   50 1
  28   13   14 2
  29   13   15 am
  30   15   34 1
  31   15   36 1
  32   16   23 am
  33   16   51 1
  34   17   18 ar
  35   17   22 ar
  36   18   19 ar
  37   18   52 1
  38   19   20 ar
  39   19   53 1
  40   20   21 ar
  41   20   54 1
  42   21   22 ar
  43   21   55 1
  44   22   33 1
  45   23   24 1
  46   23   29 2
  47   24   25 2
  48   24   28 1
  49   25   26 1
  50   25   56 1
  51   26   27 2
  52   27   28 1
  53   27   30 1
  54   30   31 1
  55   30   32 1
  56   30   57 1
  57   31   32 1
  58   31   58 1
  59   31   59 1
  60   32   60 1
  61   32   61 1
  62   33   62 1
  63   33   63 1
  64   33   64 1
  65   34   35 1
  66   34   65 1
  67   34   66 1
  68   35   67 1
  69   35   68 1
  70   35   69 1
  71   36   37 1
  72   36   38 1
  73   36   39 1
  74   37   70 1
  75   37   71 1
  76   37   72 1
  77   38   73 1
  78   38   74 1
  79   38   75 1
  80   39   76 1
  81   39   77 1
  82   39   78 1

#	End of record

