#	Name: ASD01150539
#	Creating user name:	WinNT
#	Creation time:	15. 06. 2019 19:04

#	Modifying user name:	WinNT
#	Modification time:	15. 06. 2019 19:04

#	Program:	/corina/corina34_cracker 3.40 0067  02.08.2006

@<TRIPOS>MOLECULE
ASD01150539
  49   51    0    0    0
SMALL
NO_CHARGES


@<TRIPOS>ATOM
   1 C1             2.0455     1.4038    -0.8411 C.ar    
   2 C2             2.0585     0.0229    -0.8454 C.ar    
   3 C3             0.3431    -0.0046     0.8288 C.ar    
   4 C4             0.3254     1.3763     0.8383 C.ar    
   5 C5             1.1777     2.0861     0.0020 C.ar    
   6 N6             1.1623     3.4852     0.0092 N.am    
   7 C7            -0.0113     4.1355    -0.0781 C.2     
   8 N8            -0.0630     5.4805    -0.0744 N.am    
   9 C9             1.0745     6.2002     0.0182 C.2     
  10 C10            2.3615     5.4949     0.1145 C.2     
  11 N11            2.3686     4.1879     0.1129 N.2     
  12 O12            1.0361     7.4166     0.0217 O.2     
  13 C13           -1.3553     6.1636    -0.1717 C.3     
  14 O14           -1.0435     3.4978    -0.1621 O.2     
  15 C15           -1.9178     6.3932     1.2325 C.3     
  16 O16            3.5243     6.1909     0.2090 O.3     
  17 C17            4.7305     5.4299     0.2986 C.3     
  18 C18            1.2084    -0.6807    -0.0119 C.ar    
  19 C19           -3.2472     7.0959     1.1325 C.ar    
  20 C20           -4.4120     6.3576     1.0371 C.ar    
  21 C21           -5.6352     7.0021     0.9450 C.ar    
  22 C22           -5.6875     8.3927     0.9488 C.ar    
  23 C23           -4.5161     9.1267     1.0447 C.ar    
  24 C24           -3.2995     8.4774     1.1419 C.ar    
  25 O25           -6.8855     9.0299     0.8582 O.3     
  26 C26           -6.8628    10.4586     0.8682 C.3     
  27 O27           -6.7820     6.2773     0.8507 O.3     
  28 C28           -6.6521     4.8543     0.8523 C.3     
  29 H29            2.7126     1.9527    -1.4894 H       
  30 H30            2.7330    -0.5082    -1.5007 H       
  31 H31           -0.3192    -0.5570     1.4787 H       
  32 H32           -0.3505     1.9037     1.4951 H       
  33 H33           -1.2224     7.1233    -0.6713 H       
  34 H34           -2.0491     5.5487    -0.7449 H       
  35 H35           -2.0507     5.4336     1.7321 H       
  36 H36           -1.2240     7.0082     1.8057 H       
  37 H37            5.5824     6.1063     0.3688 H       
  38 H38            4.6955     4.7965     1.1850 H       
  39 H39            4.8337     4.8066    -0.5896 H       
  40 H40            1.2200    -1.7606    -0.0177 H       
  41 H41           -4.3687     5.2785     1.0340 H       
  42 H42           -4.5539    10.2061     1.0478 H       
  43 H43           -2.3873     9.0507     1.2166 H       
  44 H44           -7.8814    10.8388     0.7902 H       
  45 H45           -6.4146    10.8084     1.7982 H       
  46 H46           -6.2750    10.8186     0.0237 H       
  47 H47           -6.0393     4.5444     0.0058 H       
  48 H48           -6.1785     4.5337     1.7802 H       
  49 H49           -7.6393     4.3992     0.7721 H       
@<TRIPOS>BOND
   1    1    2 ar
   2    1    5 ar
   3    1   29 1
   4    2   18 ar
   5    2   30 1
   6    3    4 ar
   7    3   18 ar
   8    3   31 1
   9    4    5 ar
  10    4   32 1
  11    5    6 1
  12    6    7 am
  13    6   11 1
  14    7    8 am
  15    7   14 2
  16    8    9 am
  17    8   13 1
  18    9   10 1
  19    9   12 2
  20   10   11 2
  21   10   16 1
  22   13   15 1
  23   13   33 1
  24   13   34 1
  25   15   19 1
  26   15   35 1
  27   15   36 1
  28   16   17 1
  29   17   37 1
  30   17   38 1
  31   17   39 1
  32   18   40 1
  33   19   20 ar
  34   19   24 ar
  35   20   21 ar
  36   20   41 1
  37   21   22 ar
  38   21   27 1
  39   22   23 ar
  40   22   25 1
  41   23   24 ar
  42   23   42 1
  43   24   43 1
  44   25   26 1
  45   26   44 1
  46   26   45 1
  47   26   46 1
  48   27   28 1
  49   28   47 1
  50   28   48 1
  51   28   49 1

#	End of record

