#	Name: ASD07030058
#	Creating user name:	WinNT
#	Creation time:	15. 06. 2019 21:08

#	Modifying user name:	WinNT
#	Modification time:	15. 06. 2019 21:08

#	Program:	/corina/corina34_cracker 3.40 0067  02.08.2006

@<TRIPOS>MOLECULE
ASD07030058
  62   63    0    0    0
SMALL
NO_CHARGES


@<TRIPOS>ATOM
   1 C1            -0.0187     1.5258     0.0104 C.3     
   2 C2             0.0021    -0.0041     0.0020 C.3     
   3 C3             1.3165     0.7789    -0.0063 C.3     
   4 N4            -0.4313     2.2053    -1.2248 N.3     
   5 C5            -0.9675     3.5422    -0.9364 C.3     
   6 C6            -1.3855     4.2172    -2.2442 C.3     
   7 N7            -1.9217     5.5540    -1.9557 N.3     
   8 C8            -2.1127     6.3232    -3.1933 C.3     
   9 C9            -2.7451     7.6759    -2.8576 C.3     
  10 N10           -1.8767     8.4004    -1.9193 N.3     
  11 C11           -1.6857     7.6313    -0.6818 C.3     
  12 C12           -1.0532     6.2786    -1.0174 C.3     
  13 C13           -2.4129     9.7373    -1.6308 C.3     
  14 C14           -0.3780    -0.7121     1.2769 C.ar    
  15 C15           -1.4567    -1.5770     1.2908 C.ar    
  16 C16           -1.8071    -2.2272     2.4581 C.ar    
  17 C17           -1.0757    -2.0119     3.6171 C.ar    
  18 C18            0.0062    -1.1437     3.6006 C.ar    
  19 C19            0.3560    -0.5002     2.4293 C.ar    
  20 O20           -1.4187    -2.6501     4.7669 O.3     
  21 C21           -0.6209    -2.3805     5.9214 C.3     
  22 C22           -1.1471    -3.1711     7.0914 C.ar    
  23 C23           -0.6642    -4.4424     7.3398 C.ar    
  24 C24           -1.1470    -5.1676     8.4130 C.ar    
  25 C25           -2.1122    -4.6215     9.2382 C.ar    
  26 C26           -2.5945    -3.3499     8.9904 C.ar    
  27 C27           -2.1086    -2.6230     7.9197 C.ar    
  28 H28           -0.3072     2.0201     0.9381 H       
  29 H29           -0.2904    -0.5063    -0.9201 H       
  30 H30            1.8888     0.7918    -0.9339 H       
  31 H31            1.9064     0.7818     0.9103 H       
  32 H32            0.3326     2.2562    -1.8820 H       
  33 H33           -1.8336     3.4526    -0.2807 H       
  34 H34           -0.2014     4.1429    -0.4462 H       
  35 H35           -0.5194     4.3068    -2.8999 H       
  36 H36           -2.1516     3.6164    -2.7344 H       
  37 H37           -1.1480     6.4824    -3.6751 H       
  38 H38           -2.7691     5.7719    -3.8665 H       
  39 H39           -2.8611     8.2597    -3.7707 H       
  40 H40           -3.7219     7.5172    -2.4006 H       
  41 H41           -1.0293     8.1826    -0.0086 H       
  42 H42           -2.6504     7.4721    -0.2000 H       
  43 H43           -0.9373     5.6947    -0.1043 H       
  44 H44           -0.0765     6.4372    -1.4745 H       
  45 H45           -3.4044     9.6433    -1.1879 H       
  46 H46           -1.7510    10.2517    -0.9341 H       
  47 H47           -2.4811    10.3089    -2.5564 H       
  48 H48           -2.0260    -1.7440     0.3883 H       
  49 H49           -2.6500    -2.9024     2.4686 H       
  50 H50            0.5772    -0.9744     4.5015 H       
  51 H51            1.2011     0.1722     2.4147 H       
  52 H52            0.4121    -2.6672     5.7242 H       
  53 H53           -0.6647    -1.3163     6.1528 H       
  54 H54            0.0899    -4.8691     6.6951 H       
  55 H55           -0.7702    -6.1611     8.6067 H       
  56 H56           -2.4899    -5.1884    10.0763 H       
  57 H57           -3.3489    -2.9234     9.6348 H       
  58 H58           -2.4827    -1.6281     7.7282 H       
  59 Cl59           6.9064    15.3089    15.0763 Cl      
  60 H60            6.9064    16.6789    15.0763 H       
  61 Cl61          11.9064    21.6789    20.0763 Cl      
  62 H62           11.9064    23.0489    20.0763 H       
@<TRIPOS>BOND
   1    1    2 1
   2    1    3 1
   3    1    4 1
   4    1   28 1
   5    2    3 1
   6    2   14 1
   7    2   29 1
   8    3   30 1
   9    3   31 1
  10    4    5 1
  11    4   32 1
  12    5    6 1
  13    5   33 1
  14    5   34 1
  15    6    7 1
  16    6   35 1
  17    6   36 1
  18    7    8 1
  19    7   12 1
  20    8    9 1
  21    8   37 1
  22    8   38 1
  23    9   10 1
  24    9   39 1
  25    9   40 1
  26   10   11 1
  27   10   13 1
  28   11   12 1
  29   11   41 1
  30   11   42 1
  31   12   43 1
  32   12   44 1
  33   13   45 1
  34   13   46 1
  35   13   47 1
  36   14   15 ar
  37   14   19 ar
  38   15   16 ar
  39   15   48 1
  40   16   17 ar
  41   16   49 1
  42   17   18 ar
  43   17   20 1
  44   18   19 ar
  45   18   50 1
  46   19   51 1
  47   20   21 1
  48   21   22 1
  49   21   52 1
  50   21   53 1
  51   22   23 ar
  52   22   27 ar
  53   23   24 ar
  54   23   54 1
  55   24   25 ar
  56   24   55 1
  57   25   26 ar
  58   25   56 1
  59   26   27 ar
  60   26   57 1
  61   27   58 1
  62   59   60 1
  63   61   62 1

#	End of record

