#	Name: ASD03731573
#	Creating user name:	WinNT
#	Creation time:	15. 06. 2019 20:46

#	Modifying user name:	WinNT
#	Modification time:	15. 06. 2019 20:46

#	Program:	/corina/corina34_cracker 3.40 0067  02.08.2006

@<TRIPOS>MOLECULE
ASD03731573
  33   34    0    0    0
SMALL
NO_CHARGES


@<TRIPOS>ATOM
   1 C1             0.3758     1.0937     1.9788 C.2     
   2 C2             0.2920    -0.2825     1.4519 C.ar    
   3 C3             1.3749    -0.8359     0.7628 C.ar    
   4 C4             1.2926    -2.1218     0.2728 C.ar    
   5 C5             0.1325    -2.8676     0.4638 C.ar    
   6 C6            -0.9448    -2.3194     1.1484 C.ar    
   7 C7            -0.8674    -1.0370     1.6458 C.ar    
   8 O8             1.3876     1.7474     1.8136 O.2     
   9 N9            -0.6714     1.6277     2.6382 N.am    
  10 S10           -0.5774     3.1718     3.2294 S.o2    
  11 O11           -1.8285     3.3782     3.8708 O.2     
  12 O12            0.6365     3.1910     3.9679 O.2     
  13 C13           -0.4400     4.2147     1.7515 C.3     
  14 F14            2.3381    -2.6585    -0.3935 F       
  15 O15            0.0538    -4.1332    -0.0206 O.3     
  16 C16           -1.1326    -4.7866     0.0914 C.ar    
  17 C17           -2.0867    -4.6704    -0.9093 C.ar    
  18 C18           -3.2926    -5.3358    -0.7933 C.ar    
  19 C19           -3.5483    -6.1178     0.3209 C.ar    
  20 C20           -2.5979    -6.2338     1.3193 C.ar    
  21 C21           -1.3889    -5.5751     1.2038 C.ar    
  22 Cl22          -5.0634    -6.9528     0.4650 Cl      
  23 Cl23          -4.4874    -5.1909    -2.0444 Cl      
  24 H24            2.2744    -0.2570     0.6142 H       
  25 H25           -1.8431    -2.9009     1.2942 H       
  26 H26           -1.7043    -0.6138     2.1814 H       
  27 H27           -1.4800     1.1076     2.7666 H       
  28 H28           -1.3193     4.0723     1.1233 H       
  29 H29           -0.3723     5.2608     2.0501 H       
  30 H30            0.4542     3.9376     1.1932 H       
  31 H31           -1.8873    -4.0604    -1.7779 H       
  32 H32           -2.7992    -6.8438     2.1876 H       
  33 H33           -0.6454    -5.6703     1.9813 H       
@<TRIPOS>BOND
   1    1    2 1
   2    1    8 2
   3    1    9 am
   4    2    3 ar
   5    2    7 ar
   6    3    4 ar
   7    3   24 1
   8    4    5 ar
   9    4   14 1
  10    5    6 ar
  11    5   15 1
  12    6    7 ar
  13    6   25 1
  14    7   26 1
  15    9   10 am
  16    9   27 1
  17   10   11 2
  18   10   12 2
  19   10   13 1
  20   13   28 1
  21   13   29 1
  22   13   30 1
  23   15   16 1
  24   16   17 ar
  25   16   21 ar
  26   17   18 ar
  27   17   31 1
  28   18   19 ar
  29   18   23 1
  30   19   20 ar
  31   19   22 1
  32   20   21 ar
  33   20   32 1
  34   21   33 1

#	End of record

