#	Name: ASD01915910
#	Creating user name:	WinNT
#	Creation time:	15. 06. 2019 20:06

#	Modifying user name:	WinNT
#	Modification time:	15. 06. 2019 20:06

#	Program:	/corina/corina34_cracker 3.40 0067  02.08.2006

@<TRIPOS>MOLECULE
ASD01915910
  43   45    0    0    0
SMALL
NO_CHARGES


@<TRIPOS>ATOM
   1 C1            -0.4107     1.7406     0.1047 C.ar    
   2 C2            -0.5435     0.3903     0.3734 C.ar    
   3 N3             0.4996    -0.3397     0.7071 N.ar    
   4 C4             1.7175     0.1818     0.8001 C.ar    
   5 C5             1.9310     1.5326     0.5449 C.ar    
   6 C6             0.8472     2.3315     0.1895 C.ar    
   7 C7            -1.9026    -0.2544     0.2831 C.3     
   8 O8             1.0130     3.6539    -0.0681 O.3     
   9 C9             2.2647     4.1725     0.0379 C.ar    
  10 C10            3.1953     3.9765    -0.9721 C.ar    
  11 N11            4.4108     4.4773    -0.8733 N.ar    
  12 C12            4.7899     5.1782     0.1772 C.ar    
  13 C13            3.9185     5.4158     1.2240 C.ar    
  14 C14            2.6295     4.9125     1.1585 C.ar    
  15 C15            2.8591    -0.6828     1.1794 C.2     
  16 N16            2.6592    -1.9922     1.4284 N.am    
  17 O17            3.9757    -0.2114     1.2661 O.2     
  18 C18            3.7462    -2.8274     1.6820 C.ar    
  19 C19            3.5447    -4.1955     1.8226 C.ar    
  20 C20            4.6318    -5.0143     2.0737 C.ar    
  21 C21            5.8898    -4.4326     2.1761 C.ar    
  22 C22            6.0159    -3.0634     2.0251 C.ar    
  23 N23            4.9606    -2.3104     1.7812 N.ar    
  24 C24            6.1919     5.7275     0.2378 C.3     
  25 C25            7.3766    -2.4248     2.1347 C.3     
  26 F26            6.9773    -5.1958     2.4210 F       
  27 H27           -1.2728     2.3293    -0.1722 H       
  28 H28            2.9219     1.9553     0.6216 H       
  29 H29           -2.0631    -0.6235    -0.7298 H       
  30 H30           -1.9576    -1.0859     0.9858 H       
  31 H31           -2.6700     0.4798     0.5282 H       
  32 H32            2.9213     3.4074    -1.8482 H       
  33 H33            4.2378     5.9904     2.0809 H       
  34 H34            1.9276     5.0829     1.9615 H       
  35 H35            1.7589    -2.3534     1.4311 H       
  36 H36            2.5527    -4.6140     1.7372 H       
  37 H37            4.5054    -6.0808     2.1879 H       
  38 H38            6.2122     6.7219    -0.2081 H       
  39 H39            6.5134     5.7888     1.2775 H       
  40 H40            6.8642     5.0689    -0.3121 H       
  41 H41            7.8444    -2.3952     1.1506 H       
  42 H42            7.2717    -1.4098     2.5178 H       
  43 H43            7.9977    -3.0076     2.8149 H       
@<TRIPOS>BOND
   1    1    2 ar
   2    1    6 ar
   3    1   27 1
   4    2    3 ar
   5    2    7 1
   6    3    4 ar
   7    4    5 ar
   8    4   15 1
   9    5    6 ar
  10    5   28 1
  11    6    8 1
  12    7   29 1
  13    7   30 1
  14    7   31 1
  15    8    9 1
  16    9   10 ar
  17    9   14 ar
  18   10   11 ar
  19   10   32 1
  20   11   12 ar
  21   12   13 ar
  22   12   24 1
  23   13   14 ar
  24   13   33 1
  25   14   34 1
  26   15   16 am
  27   15   17 2
  28   16   18 1
  29   16   35 1
  30   18   19 ar
  31   18   23 ar
  32   19   20 ar
  33   19   36 1
  34   20   21 ar
  35   20   37 1
  36   21   22 ar
  37   21   26 1
  38   22   23 ar
  39   22   25 1
  40   24   38 1
  41   24   39 1
  42   24   40 1
  43   25   41 1
  44   25   42 1
  45   25   43 1

#	End of record

