#	Name: ASD01209177
#	Creating user name:	WinNT
#	Creation time:	15. 06. 2019 19:11

#	Modifying user name:	WinNT
#	Modification time:	15. 06. 2019 19:11

#	Program:	/corina/corina34_cracker 3.40 0067  02.08.2006

@<TRIPOS>MOLECULE
ASD01209177
  73   75    0    0    0
SMALL
NO_CHARGES


@<TRIPOS>ATOM
   1 O1            -0.0372     1.4727     0.0332 O.3     
   2 O2             2.1215     2.1200     1.3872 O.3     
   3 C3             0.2779     6.2719    -9.5733 C.ar    
   4 C4             1.6488     6.4456    -9.6945 C.ar    
   5 C5             2.4739     6.2757    -8.5918 C.ar    
   6 C6             1.9313     5.9327    -7.3648 C.ar    
   7 C7             0.5526     5.7569    -7.2384 C.ar    
   8 C8            -0.2738     5.9339    -8.3485 C.ar    
   9 O9             3.8165     6.4462    -8.7163 O.3     
  10 C10           -0.0310     5.3897    -5.9308 C.2     
  11 N11            0.7686     5.2241    -4.8586 N.am    
  12 O12           -1.2321     5.2370    -5.8227 O.2     
  13 C13            0.2203     4.8791    -3.6300 C.2     
  14 P14            1.3060     2.3603     0.0200 P.3     
  15 O15            2.1470     1.9653    -1.1320 O.2     
  16 C16            0.8675     4.1239    -0.1241 C.3     
  17 N17            0.8973     4.6963    -2.5396 N.2     
  18 S18           -1.4466     4.6407    -3.3338 S.3     
  19 C19           -1.1052     4.2770    -1.6442 C.2     
  20 C20            0.2130     4.3713    -1.4588 C.2     
  21 C21           -0.0258     0.0437     0.0321 C.3     
  22 C22           -1.4641    -0.4778     0.0465 C.3     
  23 C23            2.6962     0.8600     1.7395 C.3     
  24 C24            3.3958     0.9796     3.0949 C.3     
  25 O25           -0.5256     6.4391   -10.6565 O.3     
  26 C26           -1.9108     6.1297   -10.4907 C.3     
  27 C27           -2.5188     5.7692   -11.8477 C.3     
  28 C28           -2.6390     7.3445    -9.9121 C.3     
  29 O29           -2.4869     6.9134   -12.7031 O.3     
  30 C30           -3.0344     6.6830   -14.0027 C.3     
  31 C31            4.3084     6.7996   -10.0106 C.3     
  32 C32            5.8302     6.9471    -9.9551 C.3     
  33 C33            6.3489     7.3197   -11.3200 C.ar    
  34 C34            6.6605     8.6357   -11.6056 C.ar    
  35 C35            6.5190     6.3432   -12.2865 C.ar    
  36 C36            6.9962     6.6871   -13.5402 C.ar    
  37 C37            7.3020     8.0041   -13.8251 C.ar    
  38 C38            7.1363     8.9778   -12.8575 C.ar    
  39 F39            6.2200     5.0558   -12.0067 F       
  40 H40            2.0753     6.7135   -10.6499 H       
  41 H41            2.5742     5.8003    -6.5072 H       
  42 H42           -1.3413     5.7988    -8.2550 H       
  43 H43            1.7271     5.3460    -4.9449 H       
  44 H44            0.1766     4.3929     0.6748 H       
  45 H45            1.7697     4.7303    -0.0439 H       
  46 H46           -1.8355     4.0252    -0.8895 H       
  47 H47            0.4817    -0.3149    -0.8634 H       
  48 H48            0.5000    -0.3161     0.9165 H       
  49 H49           -1.4555    -1.5677     0.0457 H       
  50 H50           -1.9717    -0.1191     0.9420 H       
  51 H51           -1.9900    -0.1179    -0.8378 H       
  52 H52            1.9106     0.1069     1.8012 H       
  53 H53            3.4217     0.5667     0.9807 H       
  54 H54            3.8341     0.0185     3.3636 H       
  55 H55            4.1814     1.7327     3.0331 H       
  56 H56            2.6702     1.2728     3.8536 H       
  57 H57           -2.0154     5.2850    -9.8098 H       
  58 H58           -1.9441     4.9611   -12.3002 H       
  59 H59           -3.5511     5.4477   -11.7094 H       
  60 H60           -3.6956     7.1084    -9.7856 H       
  61 H61           -2.2059     7.6013    -8.9454 H       
  62 H62           -2.5344     8.1892   -10.5930 H       
  63 H63           -2.4704     5.8939   -14.4999 H       
  64 H64           -4.0774     6.3805   -13.9091 H       
  65 H65           -2.9732     7.5990   -14.5904 H       
  66 H66            4.0447     6.0196   -10.7249 H       
  67 H67            3.8630     7.7441   -10.3232 H       
  68 H68            6.0938     7.7271    -9.2408 H       
  69 H69            6.2756     6.0026    -9.6425 H       
  70 H70            6.5318     9.3970   -10.8505 H       
  71 H71            7.1296     5.9261   -14.2948 H       
  72 H72            7.6742     8.2725   -14.8028 H       
  73 H73            7.3753    10.0070   -13.0812 H       
@<TRIPOS>BOND
   1    1   21 1
   2    1   14 1
   3    2   23 1
   4    2   14 1
   5    3    4 ar
   6    3   25 1
   7    3    8 ar
   8    4    5 ar
   9    4   40 1
  10    5    6 ar
  11    5    9 1
  12    6    7 ar
  13    6   41 1
  14    7    8 ar
  15    7   10 1
  16    8   42 1
  17    9   31 1
  18   10   11 am
  19   10   12 2
  20   11   13 1
  21   11   43 1
  22   13   17 2
  23   13   18 1
  24   14   15 2
  25   14   16 1
  26   16   20 1
  27   16   44 1
  28   16   45 1
  29   17   20 1
  30   18   19 1
  31   19   20 2
  32   19   46 1
  33   21   22 1
  34   21   47 1
  35   21   48 1
  36   22   49 1
  37   22   50 1
  38   22   51 1
  39   23   24 1
  40   23   52 1
  41   23   53 1
  42   24   54 1
  43   24   55 1
  44   24   56 1
  45   25   26 1
  46   26   27 1
  47   26   28 1
  48   26   57 1
  49   27   29 1
  50   27   58 1
  51   27   59 1
  52   28   60 1
  53   28   61 1
  54   28   62 1
  55   29   30 1
  56   30   63 1
  57   30   64 1
  58   30   65 1
  59   31   32 1
  60   31   66 1
  61   31   67 1
  62   32   33 1
  63   32   68 1
  64   32   69 1
  65   33   34 ar
  66   33   35 ar
  67   34   38 ar
  68   34   70 1
  69   35   36 ar
  70   35   39 1
  71   36   37 ar
  72   36   71 1
  73   37   38 ar
  74   37   72 1
  75   38   73 1

#	End of record

