#	Name: ASD02690054
#	Creating user name:	WinNT
#	Creation time:	15. 06. 2019 20:26

#	Modifying user name:	WinNT
#	Modification time:	15. 06. 2019 20:26

#	Program:	/corina/corina34_cracker 3.40 0067  02.08.2006

@<TRIPOS>MOLECULE
ASD02690054
  45   46    0    0    0
SMALL
NO_CHARGES


@<TRIPOS>ATOM
   1 N1            -0.0178     1.4650     0.0101 N.am    
   2 C2             0.0021    -0.0041     0.0020 C.3     
   3 C3             0.8803    -0.4916     1.1586 C.3     
   4 C4             2.2627     0.1563     1.0525 C.3     
   5 C5             2.1248     1.6768     1.1584 C.3     
   6 C6             1.2607     2.1889     0.0018 C.3     
   7 C7            -1.1868     2.1359     0.0193 C.2     
   8 O8            -2.2375     1.5256     0.0210 O.2     
   9 O9            -1.1902     3.4822     0.0266 O.3     
  10 C10            3.1403    -0.3472     2.1693 C.2     
  11 O11            2.6399    -0.7560     3.1975 O.2     
  12 N12            5.4669    -0.7719     2.9524 N.pl3   
  13 C13            4.5459    -0.3437     2.0200 C.2     
  14 C14            5.2513     0.0899     0.9106 C.2     
  15 C15            6.6063    -0.0863     1.1959 C.2     
  16 C16            6.7052    -0.6113     2.4426 C.2     
  17 C17            5.1527    -1.3070     4.2795 C.3     
  18 C18           -2.4856     4.1381     0.0364 C.3     
  19 C19           -3.2605     3.7182     1.2870 C.3     
  20 C20           -2.2890     5.6554     0.0437 C.3     
  21 C21           -3.2723     3.7317    -1.2114 C.3     
  22 H22           -1.0118    -0.3840     0.1278 H       
  23 H23            0.4128    -0.3587    -0.9433 H       
  24 H24            0.4202    -0.2139     2.1069 H       
  25 H25            0.9816    -1.5757     1.1066 H       
  26 H26            2.7120    -0.1016     0.0934 H       
  27 H27            1.6530     1.9341     2.1067 H       
  28 H28            3.1119     2.1361     1.1062 H       
  29 H29            1.7740     2.0131    -0.9436 H       
  30 H30            1.0772     3.2560     0.1274 H       
  31 H31            4.8329     0.4883    -0.0018 H       
  32 H32            7.4302     0.1526     0.5397 H       
  33 H33            7.6275    -0.8600     2.9465 H       
  34 H34            5.0313    -2.3884     4.2158 H       
  35 H35            5.9650    -1.0725     4.9674 H       
  36 H36            4.2281    -0.8583     4.6426 H       
  37 H37           -2.7000     4.0076     2.1759 H       
  38 H38           -4.2329     4.2105     1.2943 H       
  39 H39           -3.4005     2.6372     1.2818 H       
  40 H40           -1.7370     5.9545    -0.8473 H       
  41 H41           -3.2615     6.1477     0.0510 H       
  42 H42           -1.7286     5.9448     0.9326 H       
  43 H43           -3.4124     2.6508    -1.2166 H       
  44 H44           -4.2448     4.2241    -1.2041 H       
  45 H45           -2.7203     4.0309    -2.1024 H       
@<TRIPOS>BOND
   1    1    2 1
   2    1    6 1
   3    1    7 am
   4    2    3 1
   5    2   22 1
   6    2   23 1
   7    3    4 1
   8    3   24 1
   9    3   25 1
  10    4    5 1
  11    4   10 1
  12    4   26 1
  13    5    6 1
  14    5   27 1
  15    5   28 1
  16    6   29 1
  17    6   30 1
  18    7    8 2
  19    7    9 1
  20    9   18 1
  21   10   11 2
  22   10   13 1
  23   12   13 1
  24   12   16 1
  25   12   17 1
  26   13   14 2
  27   14   15 1
  28   14   31 1
  29   15   16 2
  30   15   32 1
  31   16   33 1
  32   17   34 1
  33   17   35 1
  34   17   36 1
  35   18   19 1
  36   18   21 1
  37   18   20 1
  38   19   37 1
  39   19   38 1
  40   19   39 1
  41   20   40 1
  42   20   41 1
  43   20   42 1
  44   21   43 1
  45   21   44 1
  46   21   45 1

#	End of record

