#	Name: ASD01884826
#	Creating user name:	WinNT
#	Creation time:	15. 06. 2019 19:48

#	Modifying user name:	WinNT
#	Modification time:	15. 06. 2019 19:48

#	Program:	/corina/corina34_cracker 3.40 0067  02.08.2006

@<TRIPOS>MOLECULE
ASD01884826
  40   43    0    0    0
SMALL
NO_CHARGES


@<TRIPOS>ATOM
   1 C1            -0.0178     1.4608     0.0101 C.3     
   2 N2             0.0021    -0.0041     0.0020 N.am    
   3 C3            -1.1962    -0.7038     0.0040 C.2     
   4 C4            -2.4864    -0.2633     0.0127 C.2     
   5 C5            -3.3268    -1.3896     0.0106 C.2     
   6 N6            -2.5710    -2.4679     0.0011 N.2     
   7 N7            -1.2278    -2.0653    -0.0033 N.pl3   
   8 C8            -0.0472    -2.8008    -0.0130 C.ar    
   9 C9            -0.0692    -4.1877    -0.0210 C.ar    
  10 C10            1.1175    -4.8935    -0.0311 C.ar    
  11 C11            2.3336    -4.2290    -0.0333 C.ar    
  12 C12            2.3750    -2.8504    -0.0255 C.ar    
  13 C13            1.1843    -2.1264    -0.0153 C.ar    
  14 C14            1.1849    -0.6524    -0.0128 C.2     
  15 O15            2.2318    -0.0326    -0.0194 O.2     
  16 C16           -4.8104    -1.3676     0.0184 C.ar    
  17 C17           -5.5098    -0.1562     0.0230 C.ar    
  18 C18           -6.8903    -0.1741     0.0303 C.ar    
  19 N19           -7.5551    -1.3117     0.0333 N.ar    
  20 C20           -6.9349    -2.4869     0.0292 C.ar    
  21 C21           -5.5437    -2.5548     0.0155 C.ar    
  22 C22           -7.7285    -3.7334     0.0328 C.2     
  23 C23           -9.2340    -3.6681     0.0413 C.3     
  24 C24           -7.1159    -4.9094     0.0287 C.2     
  25 H25            1.0048     1.8381     0.0023 H       
  26 H26           -0.5450     1.8219    -0.8730 H       
  27 H27           -0.5280     1.8123     0.9069 H       
  28 H28           -2.8059     0.7683     0.0201 H       
  29 H29           -1.0122    -4.7141    -0.0191 H       
  30 H30            1.0978    -5.9733    -0.0370 H       
  31 H31            3.2541    -4.7938    -0.0408 H       
  32 H32            3.3242    -2.3352    -0.0268 H       
  33 H33           -4.9758     0.7825     0.0213 H       
  34 H34           -7.4338     0.7592     0.0339 H       
  35 H35           -5.0409    -3.5105     0.0074 H       
  36 H36           -9.6028    -3.6517    -0.9843 H       
  37 H37           -9.6327    -4.5418     0.5568 H       
  38 H38           -9.5556    -2.7635     0.5575 H       
  39 H39           -6.0369    -4.9562     0.0227 H       
  40 H40           -7.6959    -5.8204     0.0314 H       
@<TRIPOS>BOND
   1    1    2 1
   2    1   25 1
   3    1   26 1
   4    1   27 1
   5    2   14 am
   6    2    3 1
   7    3    7 1
   8    3    4 2
   9    4    5 1
  10    4   28 1
  11    5    6 2
  12    5   16 1
  13    6    7 1
  14    7    8 1
  15    8   13 ar
  16    8    9 ar
  17    9   10 ar
  18    9   29 1
  19   10   11 ar
  20   10   30 1
  21   11   12 ar
  22   11   31 1
  23   12   13 ar
  24   12   32 1
  25   13   14 1
  26   14   15 2
  27   16   21 ar
  28   16   17 ar
  29   17   18 ar
  30   17   33 1
  31   18   19 ar
  32   18   34 1
  33   19   20 ar
  34   20   21 ar
  35   20   22 1
  36   21   35 1
  37   22   23 1
  38   22   24 2
  39   23   36 1
  40   23   37 1
  41   23   38 1
  42   24   39 1
  43   24   40 1

#	End of record

