#	Name: ASD01680137
#	Creating user name:	WinNT
#	Creation time:	15. 06. 2019 19:22

#	Modifying user name:	WinNT
#	Modification time:	15. 06. 2019 19:22

#	Program:	/corina/corina34_cracker 3.40 0067  02.08.2006

@<TRIPOS>MOLECULE
ASD01680137
  79   81    0    0    0
SMALL
NO_CHARGES


@<TRIPOS>ATOM
   1 N1             0.1049     1.4829     0.1046 N.am    
   2 C2            -0.0215     0.0222    -0.0047 C.3     
   3 C3             1.4011    -0.5487    -0.1832 C.3     
   4 C4             2.1965     0.6654    -0.7315 C.3     
   5 C5             1.5330     1.8408     0.0286 C.3     
   6 C6            -0.9162     2.3513     0.2452 C.2     
   7 O7            -2.0632     1.9529     0.1996 O.2     
   8 O8            -0.6652     3.6602     0.4361 O.3     
   9 C9            -0.6527    -0.5424     1.2696 C.3     
  10 N10           -0.6251    -2.0103     1.2209 N.3     
  11 C11            0.1246    -0.0649     2.4692 C.ar    
  12 C12           -0.5066     0.7008     3.4315 C.ar    
  13 C13            0.2173     1.1346     4.5314 C.ar    
  14 C14            1.5549     0.7804     4.6226 C.ar    
  15 C15            2.1179     0.0124     3.6213 C.ar    
  16 N16            1.3973    -0.3869     2.5914 N.ar    
  17 O17            3.5831     0.5602    -0.4023 O.3     
  18 C18            4.4545     1.1747    -1.3537 C.3     
  19 C19            5.8842     1.0042    -0.9087 C.2     
  20 N20            6.8870     1.5070    -1.6557 N.am    
  21 O21            6.1324     0.4146     0.1217 O.2     
  22 C22            8.2769     1.3413    -1.2232 C.3     
  23 C23            9.2099     1.9992    -2.2417 C.3     
  24 C24           10.6421     1.7236    -1.8624 C.2     
  25 O25           11.3659     1.1299    -2.6263 O.2     
  26 O26           11.1137     2.1377    -0.6758 O.3     
  27 N27            8.9433     1.4506    -3.5738 N.am    
  28 C28            9.2380     2.1743    -4.6719 C.2     
  29 O29            9.7251     3.2824    -4.5571 O.2     
  30 N30            8.9928     1.6697    -5.8973 N.am    
  31 C31            9.3131     2.4563    -7.0910 C.3     
  32 C32            8.9394     1.6593    -8.3424 C.3     
  33 C33            9.2740     2.4808    -9.5891 C.3     
  34 C34            8.9003     1.6838   -10.8405 C.3     
  35 C35           -1.8133     4.5375     0.5795 C.3     
  36 C36           -1.3409     5.9538     0.7837 C.ar    
  37 C37           -1.1380     6.7788    -0.3067 C.ar    
  38 C38           -0.7046     8.0780    -0.1194 C.ar    
  39 C39           -0.4745     8.5524     1.1585 C.ar    
  40 C40           -0.6782     7.7277     2.2490 C.ar    
  41 C41           -1.1158     6.4298     2.0619 C.ar    
  42 H42           -0.6345    -0.2332    -0.8690 H       
  43 H43            1.8081    -0.8761     0.7735 H       
  44 H44            1.4008    -1.3667    -0.9036 H       
  45 H45            2.0588     0.7688    -1.8078 H       
  46 H46            1.6619     2.7712    -0.5244 H       
  47 H47            1.9550     1.9318     1.0295 H       
  48 H48           -1.6849    -0.2007     1.3460 H       
  49 H49            0.3216    -2.3520     1.1500 H       
  50 H50           -1.0939    -2.4075     2.0212 H       
  51 H51           -1.5503     0.9581     3.3277 H       
  52 H52           -0.2493     1.7344     5.2988 H       
  53 H53            2.1493     1.1011     5.4654 H       
  54 H54            3.1590    -0.2677     3.6849 H       
  55 H55            4.3186     0.7045    -2.3276 H       
  56 H56            4.2211     2.2368    -1.4272 H       
  57 H57            6.6885     1.9786    -2.4798 H       
  58 H58            8.4128     1.8114    -0.2492 H       
  59 H59            8.5103     0.2791    -1.1496 H       
  60 H60            9.0371     3.0753    -2.2507 H       
  61 H61           12.0387     1.9377    -0.4770 H       
  62 H62            8.5547     0.5666    -3.6654 H       
  63 H63            8.6042     0.7856    -5.9889 H       
  64 H64            8.7502     3.3895    -7.0730 H       
  65 H65           10.3806     2.6761    -7.1056 H       
  66 H66            9.5024     0.7261    -8.3604 H       
  67 H67            7.8719     1.4394    -8.3279 H       
  68 H68            8.7110     3.4140    -9.5711 H       
  69 H69           10.3415     2.7006    -9.6036 H       
  70 H70            7.8328     1.4639   -10.8259 H       
  71 H71            9.1387     2.2690   -11.7286 H       
  72 H72            9.4633     0.7506   -10.8584 H       
  73 H73           -2.4254     4.4849    -0.3209 H       
  74 H74           -2.4048     4.2241     1.4397 H       
  75 H75           -1.3178     6.4082    -1.3051 H       
  76 H76           -0.5454     8.7224    -0.9714 H       
  77 H77           -0.1351     9.5672     1.3048 H       
  78 H78           -0.4981     8.0982     3.2473 H       
  79 H79           -1.2785     5.7866     2.9141 H       
@<TRIPOS>BOND
   1    1    2 1
   2    1    5 1
   3    1    6 am
   4    2    3 1
   5    2    9 1
   6    2   42 1
   7    3    4 1
   8    3   43 1
   9    3   44 1
  10    4    5 1
  11    4   17 1
  12    4   45 1
  13    5   46 1
  14    5   47 1
  15    6    7 2
  16    6    8 1
  17    8   35 1
  18    9   10 1
  19    9   11 1
  20    9   48 1
  21   10   49 1
  22   10   50 1
  23   11   12 ar
  24   11   16 ar
  25   12   13 ar
  26   12   51 1
  27   13   14 ar
  28   13   52 1
  29   14   15 ar
  30   14   53 1
  31   15   16 ar
  32   15   54 1
  33   17   18 1
  34   18   19 1
  35   18   55 1
  36   18   56 1
  37   19   20 am
  38   19   21 2
  39   20   22 1
  40   20   57 1
  41   22   23 1
  42   22   58 1
  43   22   59 1
  44   23   24 1
  45   23   27 1
  46   23   60 1
  47   24   25 2
  48   24   26 1
  49   26   61 1
  50   27   28 am
  51   27   62 1
  52   28   29 2
  53   28   30 am
  54   30   31 1
  55   30   63 1
  56   31   32 1
  57   31   64 1
  58   31   65 1
  59   32   33 1
  60   32   66 1
  61   32   67 1
  62   33   34 1
  63   33   68 1
  64   33   69 1
  65   34   70 1
  66   34   71 1
  67   34   72 1
  68   35   36 1
  69   35   73 1
  70   35   74 1
  71   36   37 ar
  72   36   41 ar
  73   37   38 ar
  74   37   75 1
  75   38   39 ar
  76   38   76 1
  77   39   40 ar
  78   39   77 1
  79   40   41 ar
  80   40   78 1
  81   41   79 1

#	End of record

