#	Name: ASD01882264
#	Creating user name:	WinNT
#	Creation time:	15. 06. 2019 19:44

#	Modifying user name:	WinNT
#	Modification time:	15. 06. 2019 19:44

#	Program:	/corina/corina34_cracker 3.40 0067  02.08.2006

@<TRIPOS>MOLECULE
ASD01882264
  46   48    0    0    0
SMALL
NO_CHARGES


@<TRIPOS>ATOM
   1 C1            -0.0168     1.3844     0.0097 C.ar    
   2 C2             0.0021    -0.0041     0.0020 C.ar    
   3 C3             1.2041    -0.6788    -0.0126 C.ar    
   4 C4             2.4033     0.0355    -0.0202 C.ar    
   5 C5             2.3802     1.4310    -0.0129 C.ar    
   6 C6             1.1741     2.0986     0.0021 C.ar    
   7 C7             3.6940    -0.6840    -0.0354 C.2     
   8 C8             3.9853    -1.4066    -1.0901 C.2     
   9 C9             5.2534    -2.1957    -1.2385 C.3     
  10 C10            6.2970    -1.7103    -0.2302 C.3     
  11 C11            5.6451    -1.6568     1.1570 C.3     
  12 C12            4.5971    -0.5398     1.1547 C.3     
  13 C13            7.4789    -2.6816    -0.2057 C.3     
  14 C14            6.7821    -0.3138    -0.6245 C.3     
  15 O15           -1.2035     2.0459     0.0189 O.3     
  16 C16           -1.1502     3.4738     0.0264 C.3     
  17 C17           -2.5513     4.0287     0.0360 C.ar    
  18 C18           -3.1882     4.2767     1.2375 C.ar    
  19 C19           -4.4734     4.7857     1.2464 C.ar    
  20 C20           -5.1215     5.0471     0.0537 C.ar    
  21 C21           -4.4842     4.8000    -1.1479 C.ar    
  22 C22           -3.1974     4.2951    -1.1567 C.ar    
  23 H23           -0.9262    -0.5560     0.0079 H       
  24 H24            1.2180    -1.7587    -0.0178 H       
  25 H25            3.3059     1.9872    -0.0184 H       
  26 H26            1.1554     3.1784     0.0077 H       
  27 H27            3.2708    -1.4359    -1.8994 H       
  28 H28            5.0449    -3.2511    -1.0629 H       
  29 H29            5.6414    -2.0694    -2.2492 H       
  30 H30            5.1670    -2.6120     1.3741 H       
  31 H31            6.4038    -1.4442     1.9102 H       
  32 H32            5.0961     0.4284     1.1144 H       
  33 H33            4.0045    -0.6009     2.0675 H       
  34 H34            7.9291    -2.7310    -1.1971 H       
  35 H35            8.2205    -2.3334     0.5132 H       
  36 H36            7.1290    -3.6724     0.0842 H       
  37 H37            5.9377     0.3755    -0.6316 H       
  38 H38            7.5252     0.0293     0.0954 H       
  39 H39            7.2289    -0.3514    -1.6180 H       
  40 H40           -0.6190     3.8129     0.9157 H       
  41 H41           -0.6274     3.8226    -0.8642 H       
  42 H42           -2.6819     4.0725     2.1694 H       
  43 H43           -4.9713     4.9788     2.1851 H       
  44 H44           -6.1259     5.4441     0.0606 H       
  45 H45           -4.9907     5.0039    -2.0797 H       
  46 H46           -2.6981     4.1054    -2.0954 H       
@<TRIPOS>BOND
   1    1    2 ar
   2    1    6 ar
   3    1   15 1
   4    2    3 ar
   5    2   23 1
   6    3    4 ar
   7    3   24 1
   8    4    5 ar
   9    4    7 1
  10    5    6 ar
  11    5   25 1
  12    6   26 1
  13    7    8 2
  14    7   12 1
  15    8    9 1
  16    8   27 1
  17    9   10 1
  18    9   28 1
  19    9   29 1
  20   10   11 1
  21   10   13 1
  22   10   14 1
  23   11   12 1
  24   11   30 1
  25   11   31 1
  26   12   32 1
  27   12   33 1
  28   13   34 1
  29   13   35 1
  30   13   36 1
  31   14   37 1
  32   14   38 1
  33   14   39 1
  34   15   16 1
  35   16   17 1
  36   16   40 1
  37   16   41 1
  38   17   18 ar
  39   17   22 ar
  40   18   19 ar
  41   18   42 1
  42   19   20 ar
  43   19   43 1
  44   20   21 ar
  45   20   44 1
  46   21   22 ar
  47   21   45 1
  48   22   46 1

#	End of record

