#	Name: ASD02500780
#	Creating user name:	WinNT
#	Creation time:	15. 06. 2019 20:23

#	Modifying user name:	WinNT
#	Modification time:	15. 06. 2019 20:23

#	Program:	/corina/corina34_cracker 3.40 0067  02.08.2006

@<TRIPOS>MOLECULE
ASD02500780
  48   51    0    0    0
SMALL
NO_CHARGES


@<TRIPOS>ATOM
   1 O1            -0.0164     1.3569     0.0095 O.3     
   2 C2             0.0021    -0.0041     0.0020 C.ar    
   3 C3             1.1496    -0.6980    -0.3644 C.ar    
   4 O4             2.2825    -0.0325    -0.7194 O.3     
   5 C5             2.1357     1.3497    -1.0629 C.3     
   6 C6             1.2537     2.0177     0.0009 C.3     
   7 C7             1.1451    -2.0846    -0.3687 C.ar    
   8 C8             0.0032    -2.7746    -0.0070 C.ar    
   9 C9            -1.1371    -2.0847     0.3592 C.ar    
  10 C10           -1.1397    -0.7023     0.3645 C.ar    
  11 S11            0.0010    -4.5366    -0.0137 S.o2    
  12 O12           -1.3555    -4.9357    -0.1538 O.2     
  13 O13            1.0256    -4.9357    -0.9138 O.2     
  14 N14            0.4814    -5.0330     1.4914 N.am    
  15 C15           -0.3527    -4.7410     2.6599 C.3     
  16 N16           -0.6634    -6.7478     5.4103 N.am    
  17 C17           -0.6232    -5.2996     5.1574 C.3     
  18 C18            0.1005    -5.6048     3.8386 C.3     
  19 C19           -0.6337    -6.9479     3.9536 C.3     
  20 S20           -0.7130    -7.7239     6.7471 S.o2    
  21 O21           -0.1913    -8.9828     6.3444 O.2     
  22 O22           -0.1703    -6.9646     7.8187 O.2     
  23 C23           -2.4108    -7.9902     7.1359 C.ar    
  24 C24           -3.0882    -9.0626     6.5818 C.ar    
  25 C25           -4.4225    -9.2709     6.8880 C.ar    
  26 C26           -5.0779    -8.4085     7.7464 C.ar    
  27 C27           -4.4024    -7.3374     8.3003 C.ar    
  28 C28           -3.0666    -7.1304     8.0000 C.ar    
  29 F29           -2.4050    -6.0869     8.5463 F       
  30 F30           -2.4480    -9.9055     5.7422 F       
  31 H31            3.1142     1.8295    -1.0831 H       
  32 H32            1.6625     1.4372    -2.0409 H       
  33 H33            1.1182     3.0714    -0.2428 H       
  34 H34            1.7236     1.9238     0.9800 H       
  35 H35            2.0346    -2.6260    -0.6551 H       
  36 H36           -2.0275    -2.6266     0.6418 H       
  37 H37           -2.0319    -0.1657     0.6516 H       
  38 H38            1.3150    -5.5171     1.5993 H       
  39 H39           -0.2544    -3.6877     2.9224 H       
  40 H40           -1.3944    -4.9618     2.4270 H       
  41 H41           -1.6089    -4.8556     5.0189 H       
  42 H42           -0.0098    -4.7510     5.8722 H       
  43 H43            1.1844    -5.6752     3.9295 H       
  44 H44           -0.0293    -7.8008     3.6448 H       
  45 H45           -1.6223    -6.9429     3.4945 H       
  46 H46           -4.9514   -10.1073     6.4555 H       
  47 H47           -6.1186    -8.5715     7.9844 H       
  48 H48           -4.9156    -6.6639     8.9707 H       
@<TRIPOS>BOND
   1    1    2 1
   2    1    6 1
   3    2    3 ar
   4    2   10 ar
   5    3    4 1
   6    3    7 ar
   7    4    5 1
   8    5    6 1
   9    5   31 1
  10    5   32 1
  11    6   33 1
  12    6   34 1
  13    7    8 ar
  14    7   35 1
  15    8    9 ar
  16    8   11 1
  17    9   10 ar
  18    9   36 1
  19   10   37 1
  20   11   12 2
  21   11   13 2
  22   11   14 am
  23   14   15 1
  24   14   38 1
  25   15   18 1
  26   15   39 1
  27   15   40 1
  28   16   17 1
  29   16   19 1
  30   16   20 am
  31   17   18 1
  32   17   41 1
  33   17   42 1
  34   18   19 1
  35   18   43 1
  36   19   44 1
  37   19   45 1
  38   20   21 2
  39   20   22 2
  40   20   23 1
  41   23   24 ar
  42   23   28 ar
  43   24   25 ar
  44   24   30 1
  45   25   26 ar
  46   25   46 1
  47   26   27 ar
  48   26   47 1
  49   27   28 ar
  50   27   48 1
  51   28   29 1

#	End of record

