#	Name: ASD01913347
#	Creating user name:	WinNT
#	Creation time:	15. 06. 2019 20:01

#	Modifying user name:	WinNT
#	Modification time:	15. 06. 2019 20:01

#	Program:	/corina/corina34_cracker 3.40 0067  02.08.2006

@<TRIPOS>MOLECULE
ASD01913347
  41   43    0    0    0
SMALL
NO_CHARGES


@<TRIPOS>ATOM
   1 C1            -0.0166     1.3765     0.0096 C.2     
   2 C2             0.0021    -0.0041     0.0020 C.2     
   3 C3             1.2499    -0.6727    -0.0135 C.2     
   4 N4             2.3635     0.0159    -0.0204 N.2     
   5 C5             2.3514     1.3566    -0.0131 C.2     
   6 N6             1.1685     2.0507     0.0019 N.pl3   
   7 C7             3.3711     2.2994    -0.0173 C.2     
   8 C8             2.7831     3.5557    -0.0047 C.2     
   9 N9             1.4768     3.4160     0.0068 N.2     
  10 C10            3.5231     4.8685    -0.0042 C.3     
  11 C11           -1.2215    -0.7480     0.0102 C.1     
  12 C12           -2.2246    -1.3579     0.0169 C.1     
  13 C13           -3.4482    -2.1018     0.0250 C.ar    
  14 C14           -3.4205    -3.4989     0.0173 C.ar    
  15 C15           -4.6030    -4.2087     0.0251 C.ar    
  16 C16           -5.8148    -3.5406     0.0407 C.ar    
  17 C17           -5.8501    -2.1573     0.0480 C.ar    
  18 C18           -4.6756    -1.4342     0.0466 C.ar    
  19 C19            4.0857     5.1374    -1.4014 C.3     
  20 C20            2.5633     5.9948     0.3846 C.3     
  21 C21            4.6716     4.8062     1.0047 C.3     
  22 C22           -7.1025    -4.3235     0.0492 C.3     
  23 H23           -0.9539     1.9131     0.0170 H       
  24 H24            1.2834    -1.7522    -0.0192 H       
  25 H25            4.4309     2.0919    -0.0282 H       
  26 H26           -2.4755    -4.0216     0.0047 H       
  27 H27           -4.5832    -5.2885     0.0188 H       
  28 H28           -6.7995    -1.6427     0.0595 H       
  29 H29           -4.7046    -0.3546     0.0527 H       
  30 H30            3.2674     5.1818    -2.1202 H       
  31 H31            4.6209     6.0869    -1.4010 H       
  32 H32            4.7694     4.3350    -1.6783 H       
  33 H33            2.1625     5.8033     1.3799 H       
  34 H34            3.0985     6.9444     0.3849 H       
  35 H35            1.7451     6.0392    -0.3342 H       
  36 H36            5.3554     4.0038     0.7278 H       
  37 H37            5.2068     5.7558     1.0051 H       
  38 H38            4.2708     4.6147     2.0001 H       
  39 H39           -7.4028    -4.5178     1.0789 H       
  40 H40           -7.8803    -3.7491    -0.4538 H       
  41 H41           -6.9557    -5.2700    -0.4712 H       
@<TRIPOS>BOND
   1    1    2 2
   2    1    6 1
   3    1   23 1
   4    2    3 1
   5    2   11 1
   6    3    4 2
   7    3   24 1
   8    4    5 1
   9    5    6 1
  10    5    7 2
  11    6    9 1
  12    7    8 1
  13    7   25 1
  14    8    9 2
  15    8   10 1
  16   10   19 1
  17   10   20 1
  18   10   21 1
  19   11   12 3
  20   12   13 1
  21   13   14 ar
  22   13   18 ar
  23   14   15 ar
  24   14   26 1
  25   15   16 ar
  26   15   27 1
  27   16   17 ar
  28   16   22 1
  29   17   18 ar
  30   17   28 1
  31   18   29 1
  32   19   30 1
  33   19   31 1
  34   19   32 1
  35   20   33 1
  36   20   34 1
  37   20   35 1
  38   21   36 1
  39   21   37 1
  40   21   38 1
  41   22   39 1
  42   22   40 1
  43   22   41 1

#	End of record

