#	Name: ASD02039096
#	Creating user name:	WinNT
#	Creation time:	15. 06. 2019 20:17

#	Modifying user name:	WinNT
#	Modification time:	15. 06. 2019 20:17

#	Program:	/corina/corina34_cracker 3.40 0067  02.08.2006

@<TRIPOS>MOLECULE
ASD02039096
  35   37    0    0    0
SMALL
NO_CHARGES


@<TRIPOS>ATOM
   1 N1            -0.0154     1.2823     0.0091 N.2     
   2 N2             0.0021    -0.0041     0.0020 N.2     
   3 C3             1.2155     1.7327    -0.0002 C.2     
   4 O4             2.0320     0.6629    -0.0138 O.3     
   5 C5             1.2335    -0.4225    -0.0120 C.2     
   6 N6             1.6029     3.0599     0.0032 N.pl3   
   7 C7             1.2700     5.4636     0.0197 C.ar    
   8 C8             1.6853    -1.8601    -0.0233 C.3     
   9 O9             1.8159    -2.3078    -1.3740 O.3     
  10 C10            2.2178    -3.5910    -1.5620 C.ar    
  11 C11            2.3664    -4.0943    -2.8530 C.ar    
  12 N12            2.4744    -4.3640    -0.5210 N.ar    
  13 N13            2.8569    -5.5821    -0.6517 N.ar    
  14 C14            3.0202    -6.1456    -1.8361 C.ar    
  15 C15            2.7789    -5.4087    -2.9940 C.ar    
  16 C16            1.5695     6.0866    -1.1771 C.ar    
  17 C17            1.5883     6.0763     1.2176 C.ar    
  18 C18            2.2064     7.3124     1.2196 C.ar    
  19 C19            2.5069     7.9375     0.0225 C.ar    
  20 C20            2.1882     7.3240    -1.1769 C.ar    
  21 Cl21           3.2828     9.4905     0.0245 Cl      
  22 Cl22           2.5651     8.1067    -2.6799 Cl      
  23 O23            3.4267    -7.4381    -1.9246 O.3     
  24 C24            0.5904     4.1185     0.0191 C.3     
  25 H25            2.5452     3.2900    -0.0049 H       
  26 H26            2.6479    -1.9425     0.4815 H       
  27 H27            0.9499    -2.4762     0.4942 H       
  28 H28            2.1655    -3.4783    -3.7170 H       
  29 H29            2.9063    -5.8501    -3.9714 H       
  30 H30            1.3208     5.6073    -2.1124 H       
  31 H31            1.3535     5.5888     2.1523 H       
  32 H32            2.4544     7.7906     2.1557 H       
  33 H33            2.7020    -8.0782    -1.9399 H       
  34 H34           -0.0409     4.0308    -0.8651 H       
  35 H35           -0.0232     4.0210     0.9147 H       
@<TRIPOS>BOND
   1    1    2 1
   2    1    3 2
   3    2    5 2
   4    3    4 1
   5    3    6 1
   6    4    5 1
   7    5    8 1
   8    6   24 1
   9    6   25 1
  10    7   16 ar
  11    7   17 ar
  12    7   24 1
  13    8    9 1
  14    8   26 1
  15    8   27 1
  16    9   10 1
  17   10   11 ar
  18   10   12 ar
  19   11   15 ar
  20   11   28 1
  21   12   13 ar
  22   13   14 ar
  23   14   15 ar
  24   14   23 1
  25   15   29 1
  26   16   20 ar
  27   16   30 1
  28   17   18 ar
  29   17   31 1
  30   18   19 ar
  31   18   32 1
  32   19   20 ar
  33   19   21 1
  34   20   22 1
  35   23   33 1
  36   24   34 1
  37   24   35 1

#	End of record

