#	Name: ASD01900097
#	Creating user name:	WinNT
#	Creation time:	15. 06. 2019 19:51

#	Modifying user name:	WinNT
#	Modification time:	15. 06. 2019 19:51

#	Program:	/corina/corina34_cracker 3.40 0067  02.08.2006

@<TRIPOS>MOLECULE
ASD01900097
  28   30    0    0    0
SMALL
NO_CHARGES


@<TRIPOS>ATOM
   1 C1             0.0424     1.1718    -1.0714 C.ar    
   2 C2             0.0325    -0.1223    -0.5257 C.ar    
   3 C3             1.2398    -0.7269    -0.1719 C.ar    
   4 C4             2.4084    -0.0161    -0.3768 C.ar    
   5 C5             2.3430     1.2568    -0.9196 C.ar    
   6 N6             1.1920     1.8070    -1.2463 N.ar    
   7 O7            -1.2399     1.5048    -1.3220 O.3     
   8 N8            -2.0887     0.4398    -0.9450 N.2     
   9 C9            -1.3749    -0.5406    -0.4638 C.2     
  10 N10           -1.8543    -1.7546     0.0093 N.pl3   
  11 C11           -3.2313    -1.9694     0.1134 C.ar    
  12 C12           -3.7458    -3.2552     0.0017 C.ar    
  13 C13           -5.1068    -3.4639     0.1050 C.ar    
  14 C14           -5.9577    -2.3948     0.3194 C.ar    
  15 C15           -5.4490    -1.1139     0.4310 C.ar    
  16 C16           -4.0881    -0.8988     0.3344 C.ar    
  17 C17           -5.6658    -4.8581    -0.0165 C.3     
  18 F18           -5.7149    -5.4528     1.2489 F       
  19 F19           -6.9561    -4.7980    -0.5539 F       
  20 F20           -4.8454    -5.6178    -0.8573 F       
  21 H21            1.2607    -1.7209     0.2499 H       
  22 H22            3.3627    -0.4491    -0.1157 H       
  23 H23            3.2566     1.8103    -1.0789 H       
  24 H24           -1.2334    -2.4537     0.2676 H       
  25 H25           -3.0820    -4.0904    -0.1661 H       
  26 H26           -7.0219    -2.5607     0.3994 H       
  27 H27           -6.1162    -0.2813     0.5984 H       
  28 H28           -3.6910     0.1014     0.4261 H       
@<TRIPOS>BOND
   1    1    2 ar
   2    1    6 ar
   3    1    7 1
   4    2    3 ar
   5    2    9 1
   6    3    4 ar
   7    3   21 1
   8    4    5 ar
   9    4   22 1
  10    5    6 ar
  11    5   23 1
  12    7    8 1
  13    8    9 2
  14    9   10 1
  15   10   11 1
  16   10   24 1
  17   11   12 ar
  18   11   16 ar
  19   12   13 ar
  20   12   25 1
  21   13   14 ar
  22   13   17 1
  23   14   15 ar
  24   14   26 1
  25   15   16 ar
  26   15   27 1
  27   16   28 1
  28   17   18 1
  29   17   19 1
  30   17   20 1

#	End of record

