#	Name: ASD01884656
#	Creating user name:	WinNT
#	Creation time:	15. 06. 2019 19:48

#	Modifying user name:	WinNT
#	Modification time:	15. 06. 2019 19:48

#	Program:	/corina/corina34_cracker 3.40 0067  02.08.2006

@<TRIPOS>MOLECULE
ASD01884656
  54   56    0    0    0
SMALL
NO_CHARGES


@<TRIPOS>ATOM
   1 C1            -0.2746     1.1099    -1.2347 C.2     
   2 C2            -0.2287    -0.2404    -1.0642 C.2     
   3 C3             1.0255    -0.8876    -1.0329 C.2     
   4 C4             2.1682    -0.1548    -1.1731 C.2     
   5 N5             2.1086     1.1897    -1.3418 N.am    
   6 C6             0.9250     1.8297    -1.3756 C.2     
   7 O7             0.8929     3.0402    -1.5288 O.2     
   8 C8             1.1010    -2.3581    -0.8478 C.ar    
   9 C9             3.3488     1.9554    -1.4893 C.3     
  10 C10            3.7173     2.0387    -2.9482 C.ar    
  11 C11            3.0909     2.9612    -3.7688 C.ar    
  12 C12            3.4304     3.0373    -5.1089 C.ar    
  13 C13            4.3948     2.1919    -5.6263 C.ar    
  14 C14            5.0199     1.2704    -4.8046 C.ar    
  15 C15            4.6848     1.1980    -3.4658 C.ar    
  16 F16            2.1486     3.7863    -3.2623 F       
  17 Cl17           4.8208     2.2861    -7.3065 Cl      
  18 C18            0.6724    -2.9344     0.3465 C.ar    
  19 C19            1.5954    -3.1659    -1.8701 C.ar    
  20 C20            1.6644    -4.5324    -1.6951 C.ar    
  21 C21            1.2417    -5.1030    -0.5024 C.ar    
  22 C22            0.7439    -4.3014     0.5156 C.ar    
  23 O23            1.3101    -6.4497    -0.3333 O.3     
  24 C24            0.8584    -6.9701     0.9186 C.3     
  25 C25            1.0110    -8.4925     0.9230 C.3     
  26 N26            2.4320    -8.8410     0.8485 N.am    
  27 C27            3.1354    -9.0475     1.9794 C.2     
  28 C28            2.4928    -8.8067     3.3211 C.3     
  29 C29            3.0358    -8.9553    -0.3510 C.2     
  30 C30            2.2257    -8.8389    -1.6165 C.3     
  31 O31            4.2305    -9.1516    -0.4120 O.2     
  32 O32            4.2851    -9.4268     1.9174 O.2     
  33 H33           -1.2244     1.6229    -1.2658 H       
  34 H34           -1.1403    -0.8090    -0.9540 H       
  35 H35            3.1280    -0.6494    -1.1492 H       
  36 H36            3.2046     2.9605    -1.0930 H       
  37 H37            4.1493     1.4597    -0.9401 H       
  38 H38            2.9421     3.7564    -5.7500 H       
  39 H39            5.7730     0.6103    -5.2089 H       
  40 H40            5.1732     0.4784    -2.8253 H       
  41 H41            0.2850    -2.3112     1.1389 H       
  42 H42            1.9238    -2.7226    -2.7985 H       
  43 H43            2.0475    -5.1590    -2.4870 H       
  44 H44            0.4160    -4.7482     1.4426 H       
  45 H45            1.4536    -6.5429     1.7257 H       
  46 H46           -0.1901    -6.7096     1.0633 H       
  47 H47            0.5852    -8.8976     1.8410 H       
  48 H48            0.4883    -8.9125     0.0637 H       
  49 H49            2.0847    -9.7430     3.7017 H       
  50 H50            3.2390    -8.4255     4.0182 H       
  51 H51            1.6898    -8.0774     3.2137 H       
  52 H52            1.1980    -8.5751    -1.3670 H       
  53 H53            2.6551    -8.0652    -2.2529 H       
  54 H54            2.2382    -9.7922    -2.1448 H       
@<TRIPOS>BOND
   1    1    2 2
   2    1    6 1
   3    1   33 1
   4    2    3 1
   5    2   34 1
   6    3    4 2
   7    3    8 1
   8    4    5 1
   9    4   35 1
  10    5    6 am
  11    5    9 1
  12    6    7 2
  13    8   18 ar
  14    8   19 ar
  15    9   10 1
  16    9   36 1
  17    9   37 1
  18   10   11 ar
  19   10   15 ar
  20   11   12 ar
  21   11   16 1
  22   12   13 ar
  23   12   38 1
  24   13   14 ar
  25   13   17 1
  26   14   15 ar
  27   14   39 1
  28   15   40 1
  29   18   22 ar
  30   18   41 1
  31   19   20 ar
  32   19   42 1
  33   20   21 ar
  34   20   43 1
  35   21   22 ar
  36   21   23 1
  37   22   44 1
  38   23   24 1
  39   24   25 1
  40   24   45 1
  41   24   46 1
  42   25   26 1
  43   25   47 1
  44   25   48 1
  45   26   27 am
  46   26   29 am
  47   27   28 1
  48   27   32 2
  49   28   49 1
  50   28   50 1
  51   28   51 1
  52   29   30 1
  53   29   31 2
  54   30   52 1
  55   30   53 1
  56   30   54 1

#	End of record

