#	Name: ASD01903032
#	Creating user name:	WinNT
#	Creation time:	15. 06. 2019 19:54

#	Modifying user name:	WinNT
#	Modification time:	15. 06. 2019 19:54

#	Program:	/corina/corina34_cracker 3.40 0067  02.08.2006

@<TRIPOS>MOLECULE
ASD01903032
  38   40    0    0    0
SMALL
NO_CHARGES


@<TRIPOS>ATOM
   1 C1             0.1331     1.4236    -0.1265 C.ar    
   2 C2             0.0973     0.0396    -0.1217 C.ar    
   3 C3             1.2783    -0.6853     0.0126 C.ar    
   4 C4             2.4876    -0.0215     0.1413 C.ar    
   5 C5             2.5231     1.3600     0.1366 C.ar    
   6 C6             1.3470     2.0858     0.0028 C.ar    
   7 N7             1.3849     3.4851    -0.0019 N.am    
   8 C8             2.4161     4.1294    -0.5831 C.2     
   9 O9             3.3536     3.4976    -1.0292 O.2     
  10 C10            2.4070     5.6076    -0.6782 C.ar    
  11 O11            1.2449    -2.0453     0.0180 O.3     
  12 C12            1.2676    -2.6866    -1.1748 C.ar    
  13 N13            1.1875    -4.0074    -1.1993 N.ar    
  14 C14            1.2069    -4.6652    -2.3469 C.ar    
  15 C15            1.3126    -3.9539    -3.5318 C.ar    
  16 C16            1.3945    -2.5717    -3.4689 C.ar    
  17 N17            1.3640    -1.9769    -2.2877 N.ar    
  18 N18            1.3804     6.2921    -0.1892 N.ar    
  19 C19            1.3332     7.6050    -0.2533 C.ar    
  20 C20            2.3613     8.3263    -0.8385 C.ar    
  21 C21            3.4530     7.6510    -1.3621 C.ar    
  22 C22            3.4787     6.2681    -1.2751 C.ar    
  23 O23           -1.0901    -0.6110    -0.2476 O.3     
  24 C24           -2.2614     0.1966    -0.3810 C.3     
  25 H25           -0.7815     1.9877    -0.2351 H       
  26 H26            3.4034    -0.5843     0.2459 H       
  27 H27            3.4667     1.8757     0.2370 H       
  28 H28            0.6689     3.9910     0.4132 H       
  29 H29            1.1415    -5.7432    -2.3604 H       
  30 H30            1.3311    -4.4653    -4.4828 H       
  31 H31            1.4781    -1.9873    -4.3733 H       
  32 H32            0.4813     8.1279     0.1556 H       
  33 H33            2.3125     9.4041    -0.8867 H       
  34 H34            4.2669     8.1906    -1.8233 H       
  35 H35            4.3135     5.7098    -1.6724 H       
  36 H36           -2.3671     0.8314     0.4988 H       
  37 H37           -2.1734     0.8203    -1.2706 H       
  38 H38           -3.1372    -0.4458    -0.4728 H       
@<TRIPOS>BOND
   1    1    2 ar
   2    1    6 ar
   3    1   25 1
   4    2    3 ar
   5    2   23 1
   6    3    4 ar
   7    3   11 1
   8    4    5 ar
   9    4   26 1
  10    5    6 ar
  11    5   27 1
  12    6    7 1
  13    7    8 am
  14    7   28 1
  15    8    9 2
  16    8   10 1
  17   10   18 ar
  18   10   22 ar
  19   11   12 1
  20   12   13 ar
  21   12   17 ar
  22   13   14 ar
  23   14   15 ar
  24   14   29 1
  25   15   16 ar
  26   15   30 1
  27   16   17 ar
  28   16   31 1
  29   18   19 ar
  30   19   20 ar
  31   19   32 1
  32   20   21 ar
  33   20   33 1
  34   21   22 ar
  35   21   34 1
  36   22   35 1
  37   23   24 1
  38   24   36 1
  39   24   37 1
  40   24   38 1

#	End of record

