#	Name: ASD03330375
#	Creating user name:	WinNT
#	Creation time:	15. 06. 2019 20:37

#	Modifying user name:	WinNT
#	Modification time:	15. 06. 2019 20:37

#	Program:	/corina/corina34_cracker 3.40 0067  02.08.2006

@<TRIPOS>MOLECULE
ASD03330375
  66   69    0    0    0
SMALL
NO_CHARGES


@<TRIPOS>ATOM
   1 C1             0.1550     1.0662     0.2384 C.3     
   2 N2            -0.1311    -0.3726     0.3283 N.3     
   3 C3             0.3500    -1.0866    -0.8682 C.3     
   4 C4             1.7800    -0.6778    -1.1111 C.2     
   5 N5             2.3625     0.4061    -0.5346 N.pl3   
   6 C6             1.6630     1.3062     0.3866 C.3     
   7 C7             2.7146    -1.2653    -1.8993 C.2     
   8 N8             3.8527    -0.5415    -1.7954 N.2     
   9 C9             3.6467     0.4645    -0.9751 C.2     
  10 C10            4.6450     1.4883    -0.5953 C.ar    
  11 C11            5.8183     1.6315    -1.3364 C.ar    
  12 C12            2.5245    -2.4741    -2.7205 C.2     
  13 O13            1.4476    -3.0393    -2.7304 O.2     
  14 C14            3.3548    -4.1548    -4.2770 C.3     
  15 N15            3.5439    -2.9531    -3.4606 N.am    
  16 C16           -1.5644    -0.6119     0.5433 C.3     
  17 C17            6.7451     2.5884    -0.9774 C.ar    
  18 C18            6.5129     3.4050     0.1150 C.ar    
  19 C19            5.3514     3.2680     0.8540 C.ar    
  20 C20            4.4143     2.3184     0.5020 C.ar    
  21 C21            4.3506    -4.1440    -5.4386 C.3     
  22 C22           -2.3546    -0.0897    -0.6583 C.3     
  23 C23           -3.6953    -0.8219    -0.7442 C.3     
  24 C24           -2.6027     1.4109    -0.4923 C.3     
  25 C25            3.5886    -5.3980    -3.4164 C.3     
  26 C26            4.1532    -5.3990    -6.2912 C.3     
  27 C27            4.1169    -2.9008    -6.2992 C.3     
  28 C28            5.1126    -2.8900    -7.4608 C.3     
  29 C29            4.9152    -4.1450    -8.3134 C.3     
  30 C30            5.1490    -5.3882    -7.4528 C.3     
  31 H31           -0.1785     1.4423    -0.7287 H       
  32 H32           -0.3753     1.5914     1.0328 H       
  33 H33            0.2977    -2.1625    -0.7012 H       
  34 H34           -0.2617    -0.8167    -1.7291 H       
  35 H35            1.8968     2.3413     0.1379 H       
  36 H36            1.9700     1.0952     1.4110 H       
  37 H37            6.0008     0.9944    -2.1892 H       
  38 H38            2.3383    -4.1708    -4.6700 H       
  39 H39            4.4027    -2.5023    -3.4527 H       
  40 H40           -1.7411    -1.6814     0.6573 H       
  41 H41           -1.8883    -0.0920     1.4449 H       
  42 H42            7.6539     2.7000    -1.5501 H       
  43 H43            7.2416     4.1523     0.3923 H       
  44 H44            5.1759     3.9084     1.7057 H       
  45 H45            3.5080     2.2123     1.0797 H       
  46 H46            5.3672    -4.1280    -5.0456 H       
  47 H47           -1.7856    -0.2651    -1.5713 H       
  48 H48           -4.2643    -0.6465     0.1688 H       
  49 H49           -4.2582    -0.4498    -1.6003 H       
  50 H50           -3.5185    -1.8909    -0.8625 H       
  51 H51           -1.6560     1.9460    -0.5655 H       
  52 H52           -3.2770     1.7565    -1.2759 H       
  53 H53           -3.0520     1.5992     0.4828 H       
  54 H54            4.6051    -5.3820    -3.0234 H       
  55 H55            2.8792    -5.4057    -2.5889 H       
  56 H56            3.4479    -6.2921    -4.0239 H       
  57 H57            4.3197    -6.2847    -5.6781 H       
  58 H58            3.1366    -5.4150    -6.6842 H       
  59 H59            3.1003    -2.9168    -6.6922 H       
  60 H60            4.2575    -2.0067    -5.6918 H       
  61 H61            4.9461    -2.0043    -8.0739 H       
  62 H62            6.1292    -2.8740    -7.0677 H       
  63 H63            3.8987    -4.1610    -8.7064 H       
  64 H64            5.6246    -4.1373    -9.1409 H       
  65 H65            6.1655    -5.3722    -7.0598 H       
  66 H66            5.0083    -6.2823    -8.0602 H       
@<TRIPOS>BOND
   1    1    2 1
   2    1    6 1
   3    1   31 1
   4    1   32 1
   5    2    3 1
   6    2   16 1
   7    3    4 1
   8    3   33 1
   9    3   34 1
  10    4    5 1
  11    4    7 2
  12    5    6 1
  13    5    9 1
  14    6   35 1
  15    6   36 1
  16    7    8 1
  17    7   12 1
  18    8    9 2
  19    9   10 1
  20   10   11 ar
  21   10   20 ar
  22   11   17 ar
  23   11   37 1
  24   12   13 2
  25   12   15 am
  26   14   25 1
  27   14   15 1
  28   14   21 1
  29   14   38 1
  30   15   39 1
  31   16   22 1
  32   16   40 1
  33   16   41 1
  34   17   18 ar
  35   17   42 1
  36   18   19 ar
  37   18   43 1
  38   19   20 ar
  39   19   44 1
  40   20   45 1
  41   21   26 1
  42   21   27 1
  43   21   46 1
  44   22   23 1
  45   22   24 1
  46   22   47 1
  47   23   48 1
  48   23   49 1
  49   23   50 1
  50   24   51 1
  51   24   52 1
  52   24   53 1
  53   25   54 1
  54   25   55 1
  55   25   56 1
  56   26   30 1
  57   26   57 1
  58   26   58 1
  59   27   28 1
  60   27   59 1
  61   27   60 1
  62   28   29 1
  63   28   61 1
  64   28   62 1
  65   29   30 1
  66   29   63 1
  67   29   64 1
  68   30   65 1
  69   30   66 1

#	End of record

