#	Name: ASD08710115
#	Creating user name:	WinNT
#	Creation time:	15. 06. 2019 21:19

#	Modifying user name:	WinNT
#	Modification time:	15. 06. 2019 21:19

#	Program:	/corina/corina34_cracker 3.40 0067  02.08.2006

@<TRIPOS>MOLECULE
ASD08710115
  46   48    0    0    0
SMALL
NO_CHARGES


@<TRIPOS>ATOM
   1 N1             0.2067     1.9028     0.5517 N.am    
   2 C2             0.0664     0.4416     0.4809 C.3     
   3 C3             0.8958    -0.0736    -0.7019 C.3     
   4 N4             2.2440     0.5053    -0.6176 N.am    
   5 C5             2.3843     1.9665    -0.5467 C.3     
   6 C6             1.5549     2.4817     0.6360 C.3     
   7 C7             3.3323    -0.2897    -0.6050 C.2     
   8 O8             3.2022    -1.4974    -0.5592 O.2     
   9 C9             5.7156    -0.2168     0.1338 C.ar    
  10 C10            4.6842     0.3071    -0.6468 C.ar    
  11 C11            4.9515     1.4070    -1.4706 C.ar    
  12 C12            6.2336     1.9280    -1.4735 C.ar    
  13 C13            7.2006     1.3510    -0.6704 C.ar    
  14 N14            6.9198     0.3144     0.0963 N.ar    
  15 C15            8.5979     1.9156    -0.6709 C.3     
  16 S16           -1.1302     2.8799     0.5299 S.o2    
  17 O17           -0.6629     4.1932     0.2542 O.2     
  18 O18           -2.0994     2.2160    -0.2695 O.2     
  19 C19           -1.7768     2.9156     2.1686 C.ar    
  20 C20           -1.0577     3.5221     3.1831 C.ar    
  21 C21           -1.5657     3.5498     4.4691 C.ar    
  22 C22           -2.7918     2.9716     4.7404 C.ar    
  23 C23           -3.5097     2.3654     3.7266 C.ar    
  24 C24           -3.0050     2.3429     2.4396 C.ar    
  25 C25           -3.3454     3.0017     6.1416 C.3     
  26 F26           -4.1151     4.1572     6.3142 F       
  27 F27           -4.1451     1.8731     6.3515 F       
  28 F28           -2.2901     3.0028     7.0601 F       
  29 Br29           0.6196     4.3123     2.8115 Br      
  30 H30            0.4305    -0.0061     1.4056 H       
  31 H31           -0.9818     0.1814     0.3335 H       
  32 H32            0.9610    -1.1607    -0.6570 H       
  33 H33            0.4257     0.2289    -1.6376 H       
  34 H34            3.4325     2.2267    -0.3994 H       
  35 H35            2.0201     2.4142    -1.4714 H       
  36 H36            1.4897     3.5688     0.5912 H       
  37 H37            2.0250     2.1792     1.5718 H       
  38 H38            5.5233    -1.0623     0.7776 H       
  39 H39            4.1772     1.8376    -2.0881 H       
  40 H40            6.4766     2.7759    -2.0967 H       
  41 H41            8.6782     2.6874     0.0946 H       
  42 H42            9.3116     1.1191    -0.4601 H       
  43 H43            8.8145     2.3485    -1.6475 H       
  44 H44           -1.0045     4.0228     5.2614 H       
  45 H45           -4.4671     1.9132     3.9391 H       
  46 H46           -3.5684     1.8733     1.6468 H       
@<TRIPOS>BOND
   1    1    2 1
   2    1    6 1
   3    1   16 am
   4    2    3 1
   5    2   30 1
   6    2   31 1
   7    3    4 1
   8    3   32 1
   9    3   33 1
  10    4    5 1
  11    4    7 am
  12    5    6 1
  13    5   34 1
  14    5   35 1
  15    6   36 1
  16    6   37 1
  17    7    8 2
  18    7   10 1
  19    9   10 ar
  20    9   14 ar
  21    9   38 1
  22   10   11 ar
  23   11   12 ar
  24   11   39 1
  25   12   13 ar
  26   12   40 1
  27   13   14 ar
  28   13   15 1
  29   15   41 1
  30   15   42 1
  31   15   43 1
  32   16   17 2
  33   16   18 2
  34   16   19 1
  35   19   20 ar
  36   19   24 ar
  37   20   21 ar
  38   20   29 1
  39   21   22 ar
  40   21   44 1
  41   22   23 ar
  42   22   25 1
  43   23   24 ar
  44   23   45 1
  45   24   46 1
  46   25   26 1
  47   25   27 1
  48   25   28 1

#	End of record

