#	Name: ASD01816718
#	Creating user name:	WinNT
#	Creation time:	15. 06. 2019 19:35

#	Modifying user name:	WinNT
#	Modification time:	15. 06. 2019 19:35

#	Program:	/corina/corina34_cracker 3.40 0067  02.08.2006

@<TRIPOS>MOLECULE
ASD01816718
  59   63    0    0    0
SMALL
NO_CHARGES


@<TRIPOS>ATOM
   1 C1             0.0201     1.4542     0.7933 C.2     
   2 C2            -0.0042     0.0845     0.4976 C.2     
   3 C3             1.1622    -0.5605     0.2070 C.2     
   4 C4             2.3685     0.1596     0.2090 C.2     
   5 N5             2.3630     1.4965     0.5017 N.am    
   6 C6             1.1908     2.1306     0.7902 C.2     
   7 C7             3.5686    -0.5004    -0.0891 C.2     
   8 C8             4.7460     0.1903    -0.0894 C.2     
   9 C9             4.7361     1.5643     0.2114 C.2     
  10 C10            3.5134     2.1997     0.5075 C.2     
  11 C11            3.5591    -1.9731    -0.4090 C.3     
  12 O12            3.4958     3.3906     0.7694 O.2     
  13 C13            5.9870     2.3287     0.2182 C.2     
  14 N14            7.1645     1.6956     0.0471 N.am    
  15 O15            5.9623     3.5350     0.3785 O.2     
  16 N16            3.5039    -2.1575    -1.8653 N.3     
  17 C17            3.7309    -3.5626    -2.2268 C.3     
  18 C18            3.8113    -3.6923    -3.7495 C.3     
  19 C19            2.5038    -3.1913    -4.3693 C.3     
  20 C20            2.2665    -1.7413    -3.9380 C.3     
  21 C21            2.2309    -1.6681    -2.4098 C.3     
  22 C22            2.5997    -3.2606    -5.8716 C.ar    
  23 N23            3.7777    -3.4170    -6.4430 N.ar    
  24 C24            1.3868    -4.0311    -3.9071 C.1     
  25 N25            0.5247    -4.6792    -3.5504 N.1     
  26 C26            3.9096    -3.4829    -7.7535 C.ar    
  27 C27            2.8066    -3.3890    -8.5806 C.ar    
  28 C28            1.5507    -3.2239    -8.0160 C.ar    
  29 C29            1.4510    -3.1651    -6.6346 C.ar    
  30 C30            8.3416     2.4322    -0.0638 C.ar    
  31 N31            9.5085     1.8356     0.1222 N.ar    
  32 C32           10.6465     2.4963     0.0260 C.ar    
  33 C33           10.6597     3.8439    -0.2740 C.ar    
  34 C34            9.4568     4.5071    -0.4765 C.ar    
  35 C35            8.2803     3.7863    -0.3746 C.ar    
  36 H36           -0.9001     1.9722     1.0199 H       
  37 H37           -0.9390    -0.4563     0.5002 H       
  38 H38            1.1584    -1.6159    -0.0223 H       
  39 H39            1.1978     3.1858     1.0201 H       
  40 H40            5.6743    -0.3123    -0.3175 H       
  41 H41            4.4655    -2.4356    -0.0183 H       
  42 H42            2.6868    -2.4388     0.0496 H       
  43 H43            7.1922     0.7271     0.0011 H       
  44 H44            4.6657    -3.9052    -1.7832 H       
  45 H45            2.9074    -4.1713    -1.8534 H       
  46 H46            4.6432    -3.0948    -4.1223 H       
  47 H47            3.9642    -4.7376    -4.0181 H       
  48 H48            3.0741    -1.1131    -4.3137 H       
  49 H49            1.3158    -1.3927    -4.3413 H       
  50 H50            1.4144    -2.2857    -2.0356 H       
  51 H51            2.0764    -0.6348    -2.0992 H       
  52 H52            4.8911    -3.6116    -8.1854 H       
  53 H53            2.9211    -3.4430    -9.6531 H       
  54 H54            0.6709    -3.1471    -8.6376 H       
  55 H55            0.4889    -3.0376    -6.1607 H       
  56 H56           11.5797     1.9763     0.1843 H       
  57 H57           11.5960     4.3767    -0.3500 H       
  58 H58            9.4401     5.5610    -0.7120 H       
  59 H59            7.3269     4.2705    -0.5264 H       
@<TRIPOS>BOND
   1    1    2 1
   2    1    6 2
   3    1   36 1
   4    2    3 2
   5    2   37 1
   6    3    4 1
   7    3   38 1
   8    4    5 1
   9    4    7 2
  10    5    6 1
  11    5   10 am
  12    6   39 1
  13    7    8 1
  14    7   11 1
  15    8    9 2
  16    8   40 1
  17    9   10 1
  18    9   13 1
  19   10   12 2
  20   11   16 1
  21   11   41 1
  22   11   42 1
  23   13   15 2
  24   13   14 am
  25   14   30 1
  26   14   43 1
  27   16   17 1
  28   16   21 1
  29   17   18 1
  30   17   44 1
  31   17   45 1
  32   18   19 1
  33   18   46 1
  34   18   47 1
  35   19   20 1
  36   19   22 1
  37   19   24 1
  38   20   21 1
  39   20   48 1
  40   20   49 1
  41   21   50 1
  42   21   51 1
  43   22   23 ar
  44   22   29 ar
  45   23   26 ar
  46   24   25 3
  47   26   27 ar
  48   26   52 1
  49   27   28 ar
  50   27   53 1
  51   28   29 ar
  52   28   54 1
  53   29   55 1
  54   30   31 ar
  55   30   35 ar
  56   31   32 ar
  57   32   33 ar
  58   32   56 1
  59   33   34 ar
  60   33   57 1
  61   34   35 ar
  62   34   58 1
  63   35   59 1

#	End of record

