#	Name: ASD02039276
#	Creating user name:	WinNT
#	Creation time:	15. 06. 2019 20:18

#	Modifying user name:	WinNT
#	Modification time:	15. 06. 2019 20:18

#	Program:	/corina/corina34_cracker 3.40 0067  02.08.2006

@<TRIPOS>MOLECULE
ASD02039276
  55   58    0    0    0
SMALL
NO_CHARGES


@<TRIPOS>ATOM
   1 C1            -0.1936     0.8762    -0.9237 C.ar    
   2 C2            -0.0050    -0.4940    -0.9105 C.ar    
   3 C3            -1.0455    -1.3443    -1.2383 C.ar    
   4 C4            -2.2808    -0.8279    -1.5814 C.ar    
   5 C5            -2.4759     0.5543    -1.5957 C.ar    
   6 C6            -1.4243     1.4039    -1.2591 C.ar    
   7 C7            -3.7986     1.1159    -1.9627 C.ar    
   8 C8            -4.9193     0.8820    -1.1574 C.ar    
   9 N9            -6.0971     1.3834    -1.4863 N.ar    
  10 C10           -6.2621     2.1152    -2.5720 C.ar    
  11 C11           -5.2028     2.3894    -3.4159 C.ar    
  12 C12           -3.9457     1.8913    -3.1137 C.ar    
  13 C13            0.9457     1.7951    -0.5651 C.3     
  14 N14            1.7858     2.0147    -1.7450 N.am    
  15 C15            1.4218     3.0437    -2.7222 C.3     
  16 C16            2.8937     1.2702    -1.9314 C.2     
  17 C17            3.2044     0.1616    -1.0034 C.2     
  18 N18            4.1803    -0.7095    -1.1376 N.2     
  19 C19            2.5624     4.0585    -2.8468 C.3     
  20 N20            2.5420    -0.1307     0.1307 N.2     
  21 C21            3.1232    -1.1762     0.6616 C.2     
  22 N22            4.1447    -1.5263    -0.1417 N.pl3   
  23 O23            3.6375     1.5099    -2.8625 O.2     
  24 C24            5.0614    -2.6476     0.0787 C.3     
  25 F25           -3.2967    -1.6586    -1.9024 F       
  26 C26            2.2067     5.0844    -3.9260 C.3     
  27 O27            1.9658     4.4092    -5.1623 O.3     
  28 C28            0.8793     3.4821    -5.1187 C.3     
  29 C29            1.1817     2.3918    -4.0874 C.3     
  30 O30           -4.7959     0.1353    -0.0320 O.3     
  31 C31           -5.9776    -0.0659     0.7459 C.3     
  32 H32            0.9588    -0.9016    -0.6433 H       
  33 H33           -0.8923    -2.4133    -1.2266 H       
  34 H34           -1.5694     2.4741    -1.2684 H       
  35 H35           -7.2416     2.5059    -2.8051 H       
  36 H36           -5.3527     2.9897    -4.3010 H       
  37 H37           -3.1018     2.0919    -3.7572 H       
  38 H38            0.5479     2.7493    -0.2196 H       
  39 H39            1.5424     1.3421     0.2266 H       
  40 H40            0.5151     3.5526    -2.3951 H       
  41 H41            2.7033     4.5670    -1.8931 H       
  42 H42            3.4811     3.5416    -3.1242 H       
  43 H43            2.8368    -1.6674     1.5797 H       
  44 H44            4.6607    -3.5432    -0.3961 H       
  45 H45            6.0342    -2.4118    -0.3528 H       
  46 H46            5.1714    -2.8220     1.1490 H       
  47 H47            1.3105     5.6289    -3.6286 H       
  48 H48            3.0334     5.7841    -4.0490 H       
  49 H49           -0.0343     4.0056    -4.8369 H       
  50 H50            0.7497     3.0275    -6.1008 H       
  51 H51            2.0725     1.8413    -4.3899 H       
  52 H52            0.3351     1.7084    -4.0208 H       
  53 H53           -6.3644     0.8984     1.0752 H       
  54 H54           -6.7297    -0.5714     0.1401 H       
  55 H55           -5.7401    -0.6784     1.6157 H       
@<TRIPOS>BOND
   1    1    2 ar
   2    1   13 1
   3    1    6 ar
   4    2    3 ar
   5    2   32 1
   6    3    4 ar
   7    3   33 1
   8    4    5 ar
   9    4   25 1
  10    5    6 ar
  11    5    7 1
  12    6   34 1
  13    7    8 ar
  14    7   12 ar
  15    8    9 ar
  16    8   30 1
  17    9   10 ar
  18   10   11 ar
  19   10   35 1
  20   11   12 ar
  21   11   36 1
  22   12   37 1
  23   13   14 1
  24   13   38 1
  25   13   39 1
  26   14   15 1
  27   14   16 am
  28   15   19 1
  29   15   29 1
  30   15   40 1
  31   16   17 1
  32   16   23 2
  33   17   18 2
  34   17   20 1
  35   18   22 1
  36   19   26 1
  37   19   41 1
  38   19   42 1
  39   20   21 2
  40   21   22 1
  41   21   43 1
  42   22   24 1
  43   24   44 1
  44   24   45 1
  45   24   46 1
  46   26   27 1
  47   26   47 1
  48   26   48 1
  49   27   28 1
  50   28   29 1
  51   28   49 1
  52   28   50 1
  53   29   51 1
  54   29   52 1
  55   30   31 1
  56   31   53 1
  57   31   54 1
  58   31   55 1

#	End of record

