#	Name: ASD01410471
#	Creating user name:	WinNT
#	Creation time:	15. 06. 2019 19:17

#	Modifying user name:	WinNT
#	Modification time:	15. 06. 2019 19:17

#	Program:	/corina/corina34_cracker 3.40 0067  02.08.2006

@<TRIPOS>MOLECULE
ASD01410471
  48   51    0    0    0
SMALL
NO_CHARGES


@<TRIPOS>ATOM
   1 C1            -0.2516     1.3419     1.4267 C.ar    
   2 C2            -0.2341    -0.0471     1.3879 C.ar    
   3 C3            -1.4126    -0.7495     1.2098 C.ar    
   4 C4            -2.6186    -0.0524     1.0694 C.ar    
   5 C5            -2.6352     1.3521     1.1088 C.ar    
   6 C6            -1.4439     2.0380     1.2939 C.ar    
   7 C7            -4.0140    -0.4725     0.8702 C.2     
   8 C8            -4.7613     0.7347     0.8059 C.2     
   9 O9            -3.9080     1.7761     0.9509 O.3     
  10 O10           -4.4388    -1.6127     0.7792 O.2     
  11 C11           -6.1080     0.8283     0.6277 C.2     
  12 C12           -6.7497     2.1412     0.5808 C.2     
  13 O13            0.9090     2.0241     1.6018 O.3     
  14 O14           -1.3997    -2.1058     1.1710 O.3     
  15 C15           -6.1350     3.3581     0.6937 C.2     
  16 C16           -8.1874     2.4161     0.3958 C.ar    
  17 C17           -8.3189     3.8135     0.4199 C.ar    
  18 N18           -7.0590     4.3467     0.6014 N.pl3   
  19 C19           -6.7616     5.7788     0.6832 C.3     
  20 C20           -9.3104     1.6117     0.2208 C.ar    
  21 C21          -10.5502     2.1941     0.0716 C.ar    
  22 C22          -10.6821     3.5750     0.0947 C.ar    
  23 C23           -9.5793     4.3827     0.2675 C.ar    
  24 C24           -6.5165     6.3299    -0.7229 C.3     
  25 C25           -6.1038     8.4002    -2.0593 C.3     
  26 C26           -6.3489     7.8491    -0.6532 C.3     
  27 C27           -9.7380     5.8811     0.2911 C.3     
  28 H28            0.6999    -0.5785     1.4966 H       
  29 H29           -1.4436     3.1175     1.3263 H       
  30 H30           -6.7022    -0.0672     0.5210 H       
  31 H31            1.3621     2.2476     0.7773 H       
  32 H32           -1.5126    -2.5251     2.0350 H       
  33 H33           -5.0750     3.5088     0.8354 H       
  34 H34           -7.6053     6.2999     1.1357 H       
  35 H35           -5.8712     5.9307     1.2932 H       
  36 H36           -9.2101     0.5366     0.2017 H       
  37 H37          -11.4231     1.5729    -0.0644 H       
  38 H38          -11.6585     4.0211    -0.0239 H       
  39 H39           -5.6120     5.8832    -1.1357 H       
  40 H40           -7.3658     6.0870    -1.3615 H       
  41 H41           -5.1993     7.9535    -2.4721 H       
  42 H42           -6.9531     8.1573    -2.6979 H       
  43 H43           -5.9844     9.4825    -2.0097 H       
  44 H44           -7.2534     8.2959    -0.2404 H       
  45 H45           -5.4997     8.0921    -0.0146 H       
  46 H46           -9.8025     6.2235     1.3239 H       
  47 H47           -8.8784     6.3452    -0.1925 H       
  48 H48          -10.6479     6.1584    -0.2412 H       
@<TRIPOS>BOND
   1    1    2 ar
   2    1   13 1
   3    1    6 ar
   4    2    3 ar
   5    2   28 1
   6    3    4 ar
   7    3   14 1
   8    4    5 ar
   9    4    7 1
  10    5    6 ar
  11    5    9 1
  12    6   29 1
  13    7    8 1
  14    7   10 2
  15    8    9 1
  16    8   11 2
  17   11   12 1
  18   11   30 1
  19   12   16 1
  20   12   15 2
  21   13   31 1
  22   14   32 1
  23   15   18 1
  24   15   33 1
  25   16   17 ar
  26   16   20 ar
  27   17   18 1
  28   17   23 ar
  29   18   19 1
  30   19   24 1
  31   19   34 1
  32   19   35 1
  33   20   21 ar
  34   20   36 1
  35   21   22 ar
  36   21   37 1
  37   22   23 ar
  38   22   38 1
  39   23   27 1
  40   24   26 1
  41   24   39 1
  42   24   40 1
  43   25   26 1
  44   25   41 1
  45   25   42 1
  46   25   43 1
  47   26   44 1
  48   26   45 1
  49   27   46 1
  50   27   47 1
  51   27   48 1

#	End of record

