#	Name: ASD00311172
#	Creating user name:	WinNT
#	Creation time:	15. 06. 2019 18:34

#	Modifying user name:	WinNT
#	Modification time:	15. 06. 2019 18:34

#	Program:	/corina/corina34_cracker 3.40 0067  02.08.2006

@<TRIPOS>MOLECULE
ASD00311172
  42   46    0    0    0
SMALL
NO_CHARGES


@<TRIPOS>ATOM
   1 C1            -0.0167     1.3772     0.0096 C.2     
   2 C2             0.0021    -0.0041     0.0020 C.2     
   3 C3             1.2582    -0.6768    -0.0131 C.2     
   4 C4             2.4315     0.0668    -0.0199 C.2     
   5 C5             2.3576     1.4746    -0.0117 C.2     
   6 N6             1.1650     2.0896     0.0022 N.am    
   7 C7            -1.3439    -0.5760     0.0118 C.2     
   8 C8            -2.3246     0.3282     0.0260 C.2     
   9 S9            -1.6787     1.9573     0.0358 S.3     
  10 O10            3.3825     2.1367    -0.0175 O.2     
  11 C11            3.7474    -0.6128    -0.0352 C.ar    
  12 C12            4.5936    -0.4756    -1.1354 C.ar    
  13 C13            5.8185    -1.1108    -1.1435 C.ar    
  14 C14            6.2079    -1.8825    -0.0633 C.ar    
  15 C15            5.3729    -2.0224     1.0309 C.ar    
  16 C16            4.1479    -1.3879     1.0531 C.ar    
  17 C17           -1.5963    -2.0329     0.0064 C.ar    
  18 C18           -1.7045    -2.7293     1.1991 C.ar    
  19 C19           -1.9421    -4.0984     1.2015 C.ar    
  20 C20           -2.0746    -4.7930     0.0368 C.ar    
  21 C21           -1.9717    -4.1269    -1.1965 C.ar    
  22 C22           -2.1037    -4.8213    -2.4117 C.ar    
  23 C23           -1.9981    -4.1454    -3.5886 C.ar    
  24 C24           -1.7606    -2.7728    -3.6078 C.ar    
  25 C25           -1.6275    -2.0687    -2.4491 C.ar    
  26 C26           -1.7361    -2.7306    -1.2181 C.ar    
  27 O27            1.3077    -2.0294    -0.0204 O.3     
  28 Cl28          -4.0171    -0.0578     0.0401 Cl      
  29 H29            1.1329     3.0591     0.0077 H       
  30 H30            4.2906     0.1262    -1.9794 H       
  31 H31            6.4745    -1.0057    -1.9950 H       
  32 H32            7.1674    -2.3781    -0.0744 H       
  33 H33            5.6824    -2.6262     1.8712 H       
  34 H34            3.4986    -1.4945     1.9096 H       
  35 H35           -1.6027    -2.2028     2.1366 H       
  36 H36           -2.0228    -4.6212     2.1431 H       
  37 H37           -2.2587    -5.8569     0.0613 H       
  38 H38           -2.2875    -5.8855    -2.4116 H       
  39 H39           -2.0995    -4.6810    -4.5209 H       
  40 H40           -1.6806    -2.2596    -4.5547 H       
  41 H41           -1.4432    -1.0049    -2.4788 H       
  42 H42            2.2049    -2.3901    -0.0306 H       
@<TRIPOS>BOND
   1    1    2 2
   2    1    6 1
   3    1    9 1
   4    2    3 1
   5    2    7 1
   6    3    4 2
   7    3   27 1
   8    4    5 1
   9    4   11 1
  10    5    6 am
  11    5   10 2
  12    6   29 1
  13    7    8 2
  14    7   17 1
  15    8    9 1
  16    8   28 1
  17   11   12 ar
  18   11   16 ar
  19   12   13 ar
  20   12   30 1
  21   13   14 ar
  22   13   31 1
  23   14   15 ar
  24   14   32 1
  25   15   16 ar
  26   15   33 1
  27   16   34 1
  28   17   18 ar
  29   17   26 ar
  30   18   19 ar
  31   18   35 1
  32   19   20 ar
  33   19   36 1
  34   20   21 ar
  35   20   37 1
  36   21   22 ar
  37   21   26 ar
  38   22   23 ar
  39   22   38 1
  40   23   24 ar
  41   23   39 1
  42   24   25 ar
  43   24   40 1
  44   25   26 ar
  45   25   41 1
  46   27   42 1

#	End of record

