#	Name: ASD01910429
#	Creating user name:	WinNT
#	Creation time:	15. 06. 2019 19:55

#	Modifying user name:	WinNT
#	Modification time:	15. 06. 2019 19:55

#	Program:	/corina/corina34_cracker 3.40 0067  02.08.2006

@<TRIPOS>MOLECULE
ASD01910429
  58   62    0    0    0
SMALL
NO_CHARGES


@<TRIPOS>ATOM
   1 C1            -0.6533     2.3464     0.2043 C.ar    
   2 C2            -0.7853     0.9688     0.2746 C.ar    
   3 C3             0.3405     0.1623     0.3202 C.ar    
   4 C4             1.5984     0.7284     0.2962 C.ar    
   5 C5             1.7357     2.1134     0.2255 C.ar    
   6 C6             0.6008     2.9207     0.1793 C.ar    
   7 F7            -2.0153     0.4105     0.2993 F       
   8 C8             3.0866     2.7267     0.1999 C.2     
   9 N9             3.3673     4.0479     0.1331 N.2     
  10 C10            4.6744     4.1303     0.1354 C.2     
  11 O11            5.1475     2.8820     0.2023 O.3     
  12 N12            4.2288     2.0912     0.2434 N.2     
  13 C13            5.4916     5.3951     0.0738 C.3     
  14 C14            6.3683     5.4982     1.3240 C.3     
  15 C15            7.1742     6.7984     1.2781 C.3     
  16 C16            8.0865     6.7858     0.0475 C.3     
  17 N17            7.2662     6.5419    -1.1468 N.am    
  18 C18            6.3848     5.3666    -1.1704 C.3     
  19 C19            7.3213     7.3802    -2.2006 C.2     
  20 C20            6.5910     7.0537    -3.4440 C.ar    
  21 O21            7.9713     8.4048    -2.1288 O.2     
  22 C22            5.9008     8.0513    -4.1339 C.ar    
  23 C23            5.2212     7.7398    -5.2936 C.ar    
  24 C24            5.2231     6.4420    -5.7727 C.ar    
  25 C25            5.9051     5.4481    -5.0932 C.ar    
  26 C26            6.5937     5.7473    -3.9360 C.ar    
  27 C27            4.4748     8.8156    -6.0397 C.3     
  28 O28            5.3454     9.4237    -6.9959 O.3     
  29 C29            4.8244    10.4209    -7.7581 C.ar    
  30 C30            5.6137    11.0553    -8.7065 C.ar    
  31 C31            5.0817    12.0687    -9.4800 C.ar    
  32 C32            3.7639    12.4510    -9.3097 C.ar    
  33 C33            2.9754    11.8206    -8.3649 C.ar    
  34 C34            3.5008    10.8024    -7.5932 C.ar    
  35 H35           -1.5334     2.9711     0.1644 H       
  36 H36            0.2332    -0.9109     0.3750 H       
  37 H37            2.4754     0.0991     0.3325 H       
  38 H38            0.7028     3.9945     0.1241 H       
  39 H39            4.8255     6.2565     0.0245 H       
  40 H40            5.7363     5.4938     2.2121 H       
  41 H41            7.0507     4.6490     1.3600 H       
  42 H42            6.4927     7.6469     1.2171 H       
  43 H43            7.7808     6.8824     2.1798 H       
  44 H44            8.5889     7.7487    -0.0447 H       
  45 H45            8.8275     5.9930     0.1501 H       
  46 H46            6.9870     4.4581    -1.1672 H       
  47 H47            5.7644     5.3931    -2.0663 H       
  48 H48            5.8982     9.0647    -3.7607 H       
  49 H49            4.6896     6.2035    -6.6810 H       
  50 H50            5.9024     4.4368    -5.4723 H       
  51 H51            7.1256     4.9707    -3.4066 H       
  52 H52            3.6208     8.3752    -6.5543 H       
  53 H53            4.1249     9.5703    -5.3354 H       
  54 H54            6.6432    10.7573    -8.8396 H       
  55 H55            5.6958    12.5631   -10.2181 H       
  56 H56            3.3499    13.2435    -9.9154 H       
  57 H57            1.9465    12.1214    -8.2333 H       
  58 H58            2.8845    10.3103    -6.8553 H       
@<TRIPOS>BOND
   1    1    2 ar
   2    1    6 ar
   3    1   35 1
   4    2    3 ar
   5    2    7 1
   6    3    4 ar
   7    3   36 1
   8    4    5 ar
   9    4   37 1
  10    5    6 ar
  11    5    8 1
  12    6   38 1
  13    8    9 1
  14    8   12 2
  15    9   10 2
  16   10   11 1
  17   10   13 1
  18   11   12 1
  19   13   14 1
  20   13   18 1
  21   13   39 1
  22   14   15 1
  23   14   40 1
  24   14   41 1
  25   15   16 1
  26   15   42 1
  27   15   43 1
  28   16   17 1
  29   16   44 1
  30   16   45 1
  31   17   18 1
  32   17   19 am
  33   18   46 1
  34   18   47 1
  35   19   20 1
  36   19   21 2
  37   20   22 ar
  38   20   26 ar
  39   22   23 ar
  40   22   48 1
  41   23   24 ar
  42   23   27 1
  43   24   25 ar
  44   24   49 1
  45   25   26 ar
  46   25   50 1
  47   26   51 1
  48   27   28 1
  49   27   52 1
  50   27   53 1
  51   28   29 1
  52   29   30 ar
  53   29   34 ar
  54   30   31 ar
  55   30   54 1
  56   31   32 ar
  57   31   55 1
  58   32   33 ar
  59   32   56 1
  60   33   34 ar
  61   33   57 1
  62   34   58 1

#	End of record

