#	Name: ASD01811113
#	Creating user name:	WinNT
#	Creation time:	15. 06. 2019 19:26

#	Modifying user name:	WinNT
#	Modification time:	15. 06. 2019 19:26

#	Program:	/corina/corina34_cracker 3.40 0067  02.08.2006

@<TRIPOS>MOLECULE
ASD01811113
  58   61    0    0    0
SMALL
NO_CHARGES


@<TRIPOS>ATOM
   1 C1            -1.9066     1.4014     0.0376 C.2     
   2 C2            -2.0104     0.0627     0.0829 C.2     
   3 N3            -0.9003    -0.7284    -0.0086 N.pl3   
   4 C4             0.3412    -0.2442    -0.1334 C.2     
   5 C5             0.5525     1.1196    -0.1790 C.2     
   6 C6            -0.6215     1.9978    -0.0941 C.2     
   7 C7            -1.0779    -2.1820     0.0326 C.3     
   8 C8            -0.8981    -2.6702     1.4469 C.ar    
   9 O9            -0.4970     3.2118    -0.1282 O.2     
  10 C10            1.9087     1.6745    -0.3128 C.2     
  11 O11            2.8659     0.9290    -0.3852 O.2     
  12 O12            2.0895     3.0095    -0.3551 O.3     
  13 C13           -2.0038    -2.8622     2.2555 C.ar    
  14 C14           -1.8447    -3.3096     3.5515 C.ar    
  15 C15           -0.5679    -3.5679     4.0448 C.ar    
  16 C16            0.5423    -3.3728     3.2262 C.ar    
  17 C17            0.3716    -2.9301     1.9300 C.ar    
  18 C18           -3.0928     2.3253     0.1133 C.3     
  19 C19           -4.3116     1.5969     0.6757 C.3     
  20 C20           -4.4910     0.2909    -0.1083 C.3     
  21 C21           -3.3353    -0.6415     0.2452 C.3     
  22 O22           -2.7741     3.4316     0.9598 O.3     
  23 C23           -0.3907    -4.0489     5.4382 C.2     
  24 C24           -1.4169    -4.2890     6.3726 C.2     
  25 N25           -0.8661    -4.7023     7.4832 N.2     
  26 N26            0.5219    -4.7422     7.3034 N.pl3   
  27 C27            0.7953    -4.3443     6.0445 C.2     
  28 C28            1.5067    -5.1508     8.3080 C.3     
  29 C29            1.3200    -4.3140     9.5752 C.3     
  30 C30            2.2635    -4.8235    10.6665 C.3     
  31 C31            1.6372    -2.8487     9.2700 C.3     
  32 H32            1.1797    -0.9218    -0.1982 H       
  33 H33           -2.0795    -2.4356    -0.3147 H       
  34 H34           -0.3386    -2.6568    -0.6124 H       
  35 H35            2.9986     3.3268    -0.4438 H       
  36 H36           -2.9933    -2.6613     1.8722 H       
  37 H37           -2.7087    -3.4589     4.1821 H       
  38 H38            1.5344    -3.5716     3.6038 H       
  39 H39            1.2316    -2.7785     1.2946 H       
  40 H40           -3.3247     2.6942    -0.8858 H       
  41 H41           -4.1526     1.3739     1.7307 H       
  42 H42           -5.1984     2.2201     0.5603 H       
  43 H43           -5.4370    -0.1757     0.1665 H       
  44 H44           -4.4806     0.4999    -1.1780 H       
  45 H45           -3.3622    -1.5111    -0.4115 H       
  46 H46           -3.4426    -0.9700     1.2789 H       
  47 H47           -3.4922     4.0718     1.0575 H       
  48 H48           -2.4747    -4.1545     6.2012 H       
  49 H49            1.7761    -4.2669     5.5989 H       
  50 H50            1.3675    -6.2055     8.5454 H       
  51 H51            2.5118    -4.9964     7.9155 H       
  52 H52            0.2887    -4.3987     9.9179 H       
  53 H53            3.2948    -4.7387    10.3239 H       
  54 H54            2.1305    -4.2273    11.5693 H       
  55 H55            2.0375    -5.8674    10.8839 H       
  56 H56            2.6685    -2.7639     8.9274 H       
  57 H57            0.9650    -2.4857     8.4926 H       
  58 H58            1.5042    -2.2525    10.1728 H       
@<TRIPOS>BOND
   1    1    2 2
   2    1   18 1
   3    1    6 1
   4    2    3 1
   5    2   21 1
   6    3    4 1
   7    3    7 1
   8    4    5 2
   9    4   32 1
  10    5    6 1
  11    5   10 1
  12    6    9 2
  13    7    8 1
  14    7   33 1
  15    7   34 1
  16    8   13 ar
  17    8   17 ar
  18   10   11 2
  19   10   12 1
  20   12   35 1
  21   13   14 ar
  22   13   36 1
  23   14   15 ar
  24   14   37 1
  25   15   16 ar
  26   15   23 1
  27   16   17 ar
  28   16   38 1
  29   17   39 1
  30   18   19 1
  31   18   22 1
  32   18   40 1
  33   19   20 1
  34   19   41 1
  35   19   42 1
  36   20   21 1
  37   20   43 1
  38   20   44 1
  39   21   45 1
  40   21   46 1
  41   22   47 1
  42   23   24 1
  43   23   27 2
  44   24   25 2
  45   24   48 1
  46   25   26 1
  47   26   27 1
  48   26   28 1
  49   27   49 1
  50   28   29 1
  51   28   50 1
  52   28   51 1
  53   29   30 1
  54   29   31 1
  55   29   52 1
  56   30   53 1
  57   30   54 1
  58   30   55 1
  59   31   56 1
  60   31   57 1
  61   31   58 1

#	End of record

