#	Name: ASD01911447
#	Creating user name:	WinNT
#	Creation time:	15. 06. 2019 19:57

#	Modifying user name:	WinNT
#	Modification time:	15. 06. 2019 19:57

#	Program:	/corina/corina34_cracker 3.40 0067  02.08.2006

@<TRIPOS>MOLECULE
ASD01911447
  26   26    0    0    0
SMALL
NO_CHARGES


@<TRIPOS>ATOM
   1 C1            -0.0187     1.5258     0.0104 C.3     
   2 C2             0.0021    -0.0041     0.0020 C.3     
   3 N3             0.6043    -0.4911     1.2455 N.pl3   
   4 O4             1.3220     2.0204     0.0003 O.3     
   5 C5             0.7325    -1.8590     1.4675 C.ar    
   6 C6             1.3062    -2.3157     2.6523 C.ar    
   7 C7             1.4271    -3.6792     2.8592 C.ar    
   8 C8             0.9690    -4.5424     1.8714 C.ar    
   9 C9             0.4112    -4.0197     0.7220 C.ar    
  10 N10            0.3036    -2.7147     0.5537 N.ar    
  11 I11            1.1239    -6.6163     2.1237 I       
  12 F12            1.7387    -1.4401     3.5859 F       
  13 C13           -0.7587     2.0326    -1.2291 C.3     
  14 C14           -0.7348     2.0192     1.2692 C.3     
  15 H15           -1.0175    -0.3808    -0.0798 H       
  16 H16            0.5883    -0.3548    -0.8473 H       
  17 H17            0.9137     0.1398     1.9142 H       
  18 H18            1.3852     2.9853     0.0049 H       
  19 H19            1.8678    -4.0631     3.7673 H       
  20 H20            0.0540    -4.6874    -0.0480 H       
  21 H21           -1.7813     1.6553    -1.2214 H       
  22 H22           -0.7734     3.1225    -1.2231 H       
  23 H23           -0.2485     1.6811    -2.1259 H       
  24 H24           -0.2076     1.6581     2.1523 H       
  25 H25           -0.7496     3.1091     1.2752 H       
  26 H26           -1.7574     1.6419     1.2770 H       
@<TRIPOS>BOND
   1    1    2 1
   2    1    4 1
   3    1   13 1
   4    1   14 1
   5    2    3 1
   6    2   15 1
   7    2   16 1
   8    3    5 1
   9    3   17 1
  10    4   18 1
  11    5    6 ar
  12    5   10 ar
  13    6    7 ar
  14    6   12 1
  15    7    8 ar
  16    7   19 1
  17    8    9 ar
  18    8   11 1
  19    9   10 ar
  20    9   20 1
  21   13   21 1
  22   13   22 1
  23   13   23 1
  24   14   24 1
  25   14   25 1
  26   14   26 1

#	End of record

