#	Name: ASD03731728
#	Creating user name:	WinNT
#	Creation time:	15. 06. 2019 20:46

#	Modifying user name:	WinNT
#	Modification time:	15. 06. 2019 20:46

#	Program:	/corina/corina34_cracker 3.40 0067  02.08.2006

@<TRIPOS>MOLECULE
ASD03731728
  37   38    0    0    0
SMALL
NO_CHARGES


@<TRIPOS>ATOM
   1 C1            -0.7959     1.3890     0.4228 C.2     
   2 C2            -0.5708    -0.0650     0.3059 C.ar    
   3 C3             0.5774    -0.5474    -0.3279 C.ar    
   4 C4             0.7839    -1.9045    -0.4350 C.ar    
   5 C5            -0.1485    -2.7945     0.0861 C.ar    
   6 C6            -1.2920    -2.3185     0.7173 C.ar    
   7 C7            -1.5025    -0.9628     0.8339 C.ar    
   8 O8             0.0182     2.1687    -0.0327 O.2     
   9 N9            -1.9067     1.8523     1.0295 N.am    
  10 S10           -2.1592     3.4837     1.1606 S.o2    
  11 O11           -3.3893     3.5924     1.8637 O.2     
  12 O12           -0.9506     3.9818     1.7175 O.2     
  13 C13           -2.3524     4.0508    -0.5516 C.3     
  14 O14            0.0580    -4.1312    -0.0222 O.3     
  15 C15           -0.4510    -4.7698    -1.1093 C.ar    
  16 C16           -0.3650    -6.1557    -1.2077 C.ar    
  17 C17           -0.8846    -6.8027    -2.3166 C.ar    
  18 C18           -1.4878    -6.0725    -3.3243 C.ar    
  19 C19           -1.5738    -4.6944    -3.2276 C.ar    
  20 C20           -1.0612    -4.0428    -2.1187 C.ar    
  21 O21            0.2287    -6.8734    -0.2164 O.3     
  22 C22            0.2812    -8.2915    -0.3843 C.3     
  23 F23           -2.1634    -3.9845    -4.2143 F       
  24 H24            1.3018     0.1434    -0.7335 H       
  25 H25            1.6710    -2.2781    -0.9247 H       
  26 H26           -2.0140    -3.0130     1.1209 H       
  27 H27           -2.3889    -0.5937     1.3283 H       
  28 H28           -2.5581     1.2302     1.3893 H       
  29 H29           -3.2016     3.5430    -1.0089 H       
  30 H30           -2.5248     5.1271    -0.5606 H       
  31 H31           -1.4469     3.8232    -1.1141 H       
  32 H32           -0.8184    -7.8778    -2.3945 H       
  33 H33           -1.8921    -6.5784    -4.1885 H       
  34 H34           -1.1331    -2.9678    -2.0426 H       
  35 H35            0.7788    -8.7410     0.4750 H       
  36 H36           -0.7319    -8.6856    -0.4647 H       
  37 H37            0.8367    -8.5297    -1.2914 H       
@<TRIPOS>BOND
   1    1    2 1
   2    1    8 2
   3    1    9 am
   4    2    3 ar
   5    2    7 ar
   6    3    4 ar
   7    3   24 1
   8    4    5 ar
   9    4   25 1
  10    5    6 ar
  11    5   14 1
  12    6    7 ar
  13    6   26 1
  14    7   27 1
  15    9   10 am
  16    9   28 1
  17   10   11 2
  18   10   12 2
  19   10   13 1
  20   13   29 1
  21   13   30 1
  22   13   31 1
  23   14   15 1
  24   15   16 ar
  25   15   20 ar
  26   16   17 ar
  27   16   21 1
  28   17   18 ar
  29   17   32 1
  30   18   19 ar
  31   18   33 1
  32   19   20 ar
  33   19   23 1
  34   20   34 1
  35   21   22 1
  36   22   35 1
  37   22   36 1
  38   22   37 1

#	End of record

