#	Name: ASD01883444
#	Creating user name:	WinNT
#	Creation time:	15. 06. 2019 19:46

#	Modifying user name:	WinNT
#	Modification time:	15. 06. 2019 19:46

#	Program:	/corina/corina34_cracker 3.40 0067  02.08.2006

@<TRIPOS>MOLECULE
ASD01883444
  61   63    0    0    0
SMALL
NO_CHARGES


@<TRIPOS>ATOM
   1 N1            -0.1931     1.2419    -0.5900 N.am    
   2 C2            -0.8412     0.8485    -1.7022 C.2     
   3 C3            -2.1221     0.2561    -1.6001 C.2     
   4 C4            -2.6902     0.0923    -0.3254 C.2     
   5 C5            -1.9632     0.5237     0.7996 C.2     
   6 C6            -0.7414     1.0781     0.6420 C.2     
   7 O7            -0.3254     1.0028    -2.7963 O.2     
   8 C8            -2.8259    -0.1677    -2.7729 C.1     
   9 N9            -3.3843    -0.5040    -3.7033 N.1     
  10 N10           -3.9344    -0.4789    -0.1799 N.pl3   
  11 C11           -5.0603     0.3037     0.3479 C.3     
  12 C12           -5.6732    -0.4510     1.5318 C.3     
  13 C13           -6.0450    -1.8685     1.0907 C.3     
  14 C14           -4.7846    -2.6126     0.6440 C.3     
  15 C15           -4.1629    -1.8809    -0.5553 C.3     
  16 C16            1.1327     1.8534    -0.7102 C.3     
  17 C17            0.9839     3.3690    -0.8571 C.3     
  18 C18            2.3686     4.0077    -0.9826 C.3     
  19 C19            2.2166     5.5057    -1.2541 C.3     
  20 C20            3.1452     3.8015     0.3194 C.3     
  21 O21           -6.6467    -2.5648     2.1840 O.3     
  22 C22           -7.4944    -3.5827     1.8761 C.ar    
  23 C23           -7.6545    -3.9782     0.5583 C.ar    
  24 C24           -8.5169    -5.0133     0.2469 C.ar    
  25 C25           -9.2210    -5.6551     1.2482 C.ar    
  26 C26           -9.0658    -5.2652     2.5659 C.ar    
  27 C27           -8.1988    -4.2331     2.8852 C.ar    
  28 O28           -8.0450    -3.8484     4.1805 O.3     
  29 C29           -8.8092    -4.5526     5.1615 C.3     
  30 C30           -8.5058    -3.9838     6.5491 C.3     
  31 H31           -2.3803     0.4081     1.7891 H       
  32 H32           -0.1929     1.4055     1.5128 H       
  33 H33           -4.7036     1.2783     0.6810 H       
  34 H34           -5.8117     0.4339    -0.4309 H       
  35 H35           -4.9494    -0.5011     2.3453 H       
  36 H36           -6.5678     0.0707     1.8719 H       
  37 H37           -6.7499    -1.8174     0.2609 H       
  38 H38           -4.0691    -2.6425     1.4658 H       
  39 H39           -5.0467    -3.6296     0.3521 H       
  40 H40           -4.8425    -1.9308    -1.4061 H       
  41 H41           -3.2130    -2.3477    -0.8158 H       
  42 H42            1.7178     1.6306     0.1821 H       
  43 H43            1.6401     1.4514    -1.5872 H       
  44 H44            0.3988     3.5919    -1.7494 H       
  45 H45            0.4765     3.7710     0.0199 H       
  46 H46            2.9101     3.5422    -1.8062 H       
  47 H47            1.6751     5.9711    -0.4305 H       
  48 H48            3.2031     5.9606    -1.3435 H       
  49 H49            1.6634     5.6525    -2.1817 H       
  50 H50            3.2535     2.7343     0.5129 H       
  51 H51            4.1317     4.2565     0.2301 H       
  52 H52            2.6037     4.2669     1.1430 H       
  53 H53           -7.1060    -3.4779    -0.2261 H       
  54 H54           -8.6409    -5.3207    -0.7809 H       
  55 H55           -9.8942    -6.4626     1.0010 H       
  56 H56           -9.6172    -5.7683     3.3464 H       
  57 H57           -9.8714    -4.4374     4.9459 H       
  58 H58           -8.5459    -5.6100     5.1368 H       
  59 H59           -7.4436    -4.0989     6.7646 H       
  60 H60           -8.7691    -2.9263     6.5738 H       
  61 H61           -9.0887    -4.5209     7.2973 H       
@<TRIPOS>BOND
   1    1    2 am
   2    1   16 1
   3    1    6 1
   4    2    3 1
   5    2    7 2
   6    3    4 2
   7    3    8 1
   8    4    5 1
   9    4   10 1
  10    5    6 2
  11    5   31 1
  12    6   32 1
  13    8    9 3
  14   10   11 1
  15   10   15 1
  16   11   12 1
  17   11   33 1
  18   11   34 1
  19   12   13 1
  20   12   35 1
  21   12   36 1
  22   13   14 1
  23   13   21 1
  24   13   37 1
  25   14   15 1
  26   14   38 1
  27   14   39 1
  28   15   40 1
  29   15   41 1
  30   16   17 1
  31   16   42 1
  32   16   43 1
  33   17   18 1
  34   17   44 1
  35   17   45 1
  36   18   19 1
  37   18   20 1
  38   18   46 1
  39   19   47 1
  40   19   48 1
  41   19   49 1
  42   20   50 1
  43   20   51 1
  44   20   52 1
  45   21   22 1
  46   22   23 ar
  47   22   27 ar
  48   23   24 ar
  49   23   53 1
  50   24   25 ar
  51   24   54 1
  52   25   26 ar
  53   25   55 1
  54   26   27 ar
  55   26   56 1
  56   27   28 1
  57   28   29 1
  58   29   30 1
  59   29   57 1
  60   29   58 1
  61   30   59 1
  62   30   60 1
  63   30   61 1

#	End of record

