#	Name: ASD05740035
#	Creating user name:	WinNT
#	Creation time:	15. 06. 2019 21:02

#	Modifying user name:	WinNT
#	Modification time:	15. 06. 2019 21:02

#	Program:	/corina/corina34_cracker 3.40 0067  02.08.2006

@<TRIPOS>MOLECULE
ASD05740035
  48   49    0    0    0
SMALL
NO_CHARGES


@<TRIPOS>ATOM
   1 C1            -0.0225     1.8097     0.0120 C.3     
   2 C2             0.4282     1.5960     8.1073 C.3     
   3 C3             2.7567     2.5698     7.8009 C.2     
   4 C4             4.0092     2.5058     7.2169 C.2     
   5 C5             1.8024     1.5590     7.4897 C.2     
   6 C6             2.1409     0.5611     6.6322 C.2     
   7 C7             3.4254     0.5404     6.0655 C.2     
   8 O8             4.3147     1.4974     6.3655 O.3     
   9 C9             1.1444    -0.5170     6.2918 C.3     
  10 C10            0.4278    -0.1542     5.0167 C.ar    
  11 C11           -0.7975     0.4992     5.0517 C.ar    
  12 O12            3.7337    -0.3534     5.2952 O.2     
  13 C13            0.2848    -0.1083     2.6273 C.ar    
  14 N14           -0.8829     0.5097     2.7043 N.ar    
  15 C15           -1.4280     0.8180     3.8664 C.ar    
  16 N16            0.8226    -0.4138     1.3808 N.am    
  17 S17            0.0021    -0.0041     0.0020 S.o2    
  18 O18           -1.3056    -0.5216     0.2056 O.2     
  19 O19            0.8248    -0.4858    -1.0517 O.2     
  20 S20            4.9917     3.8608     7.7623 S.3     
  21 C21            3.6959     4.4846     8.7646 C.2     
  22 C22            2.6206     3.7175     8.6860 C.2     
  23 O23            3.7858     5.6057     9.5266 O.3     
  24 C24            0.9779    -0.4602     3.7837 C.ar    
  25 F25            2.1703    -1.0903     3.7029 F       
  26 C26            5.0274     6.3125     9.4971 C.3     
  27 H27            1.0001     2.1870     0.0043 H       
  28 H28           -0.5497     2.1708    -0.8711 H       
  29 H29           -0.5327     2.1613     0.9088 H       
  30 H30            0.3473     2.4639     8.7618 H       
  31 H31           -0.3224     1.6636     7.3198 H       
  32 H32            0.2658     0.6874     8.6870 H       
  33 H33            1.6659    -1.4648     6.1585 H       
  34 H34            0.4205    -0.6113     7.1013 H       
  35 H35           -1.2523     0.7549     5.9972 H       
  36 H36           -2.3806     1.3263     3.8898 H       
  37 H37            1.6782    -0.8667     1.3196 H       
  38 H38            1.7118     3.9302     9.2292 H       
  39 H39            5.8266     5.6576     9.8442 H       
  40 H40            5.2383     6.6339     8.4771 H       
  41 H41            4.9644     7.1850    10.1473 H       
  42 C42           11.3538    14.8543    17.0156 C.3     
  43 N43           11.3736    13.3895    17.0075 N.2     
  44 C44           11.9144    12.7770    16.0615 C.1     
  45 O45           12.4369    12.1850    15.1473 O.2     
  46 H46           12.3764    15.2316    17.0079 H       
  47 H47           10.8266    15.2154    16.1325 H       
  48 H48           10.8436    15.2059    17.9124 H       
@<TRIPOS>BOND
   1    1   17 1
   2    1   27 1
   3    1   28 1
   4    1   29 1
   5    2    5 1
   6    2   30 1
   7    2   31 1
   8    2   32 1
   9    3    4 2
  10    3    5 1
  11    3   22 1
  12    4   20 1
  13    4    8 1
  14    5    6 2
  15    6    7 1
  16    6    9 1
  17    7    8 1
  18    7   12 2
  19    9   10 1
  20    9   33 1
  21    9   34 1
  22   10   11 ar
  23   10   24 ar
  24   11   15 ar
  25   11   35 1
  26   13   14 ar
  27   13   16 1
  28   13   24 ar
  29   14   15 ar
  30   15   36 1
  31   16   17 am
  32   16   37 1
  33   17   18 2
  34   17   19 2
  35   20   21 1
  36   21   22 2
  37   21   23 1
  38   22   38 1
  39   23   26 1
  40   24   25 1
  41   26   39 1
  42   26   40 1
  43   26   41 1
  44   42   43 1
  45   42   46 1
  46   42   47 1
  47   42   48 1
  48   43   44 2
  49   44   45 2

#	End of record

