#	Name: ASD04590662
#	Creating user name:	WinNT
#	Creation time:	15. 06. 2019 20:51

#	Modifying user name:	WinNT
#	Modification time:	15. 06. 2019 20:51

#	Program:	/corina/corina34_cracker 3.40 0067  02.08.2006

@<TRIPOS>MOLECULE
ASD04590662
  31   34    0    0    0
SMALL
NO_CHARGES


@<TRIPOS>ATOM
   1 N1            -0.0159     1.3228     0.0093 N.ar    
   2 C2             0.0021    -0.0041     0.0020 C.ar    
   3 N3             1.1290    -0.6965    -0.0120 N.ar    
   4 C4             2.3053    -0.0754    -0.0199 C.ar    
   5 C5             2.3214     1.3353    -0.0129 C.ar    
   6 C6             1.1079     2.0200     0.0023 C.ar    
   7 N7             3.6013    -0.5144    -0.0343 N.pl3   
   8 C8             4.4901     0.5726    -0.0371 C.2     
   9 C9             3.7269     1.7299    -0.0241 C.2     
  10 N10           -1.2017    -0.6881     0.0098 N.pl3   
  11 C11            4.0052    -1.9226    -0.0447 C.3     
  12 C12            3.4671    -2.6346     1.2088 C.3     
  13 C13            2.5382    -3.7612     0.7111 C.3     
  14 C14            3.0316    -4.0524    -0.7279 C.3     
  15 C15            3.3845    -2.6414    -1.2604 C.3     
  16 C16            5.8591     0.8349    -0.0486 C.2     
  17 N17            6.2615     2.0656    -0.0462 N.2     
  18 S18            4.8870     3.0601    -0.0288 S.3     
  19 H19            1.0854     3.0998     0.0076 H       
  20 H20           -2.0383    -0.1974     0.0205 H       
  21 H21           -1.2084    -1.6581     0.0047 H       
  22 H22            5.0920    -1.9988    -0.0798 H       
  23 H23            4.2927    -3.0570     1.7816 H       
  24 H24            2.9054    -1.9324     1.8249 H       
  25 H25            2.6438    -4.6472     1.3372 H       
  26 H26            1.5020    -3.4234     0.6980 H       
  27 H27            3.9147    -4.6911    -0.7116 H       
  28 H28            2.2385    -4.5032    -1.3244 H       
  29 H29            2.4850    -2.1227    -1.5918 H       
  30 H30            4.1077    -2.7101    -2.0730 H       
  31 H31            6.5729     0.0244    -0.0590 H       
@<TRIPOS>BOND
   1    1    2 ar
   2    1    6 ar
   3    2    3 ar
   4    2   10 1
   5    3    4 ar
   6    4    5 ar
   7    4    7 1
   8    5    6 ar
   9    5    9 1
  10    6   19 1
  11    7    8 1
  12    7   11 1
  13    8    9 2
  14    8   16 1
  15    9   18 1
  16   10   20 1
  17   10   21 1
  18   11   12 1
  19   11   15 1
  20   11   22 1
  21   12   13 1
  22   12   23 1
  23   12   24 1
  24   13   14 1
  25   13   25 1
  26   13   26 1
  27   14   15 1
  28   14   27 1
  29   14   28 1
  30   15   29 1
  31   15   30 1
  32   16   17 2
  33   16   31 1
  34   17   18 1

#	End of record

