#	Name: ASD02198116
#	Creating user name:	WinNT
#	Creation time:	15. 06. 2019 20:18

#	Modifying user name:	WinNT
#	Modification time:	15. 06. 2019 20:18

#	Program:	/corina/corina34_cracker 3.40 0067  02.08.2006

@<TRIPOS>MOLECULE
ASD02198116
  45   46    0    0    0
SMALL
NO_CHARGES


@<TRIPOS>ATOM
   1 C1            -0.0189     1.3490    -0.2542 C.2     
   2 C2             0.0070    -0.0290    -0.2061 C.2     
   3 C3            -1.1773    -0.8335    -0.2368 C.1     
   4 S4             1.5602     1.9892    -0.1984 S.3     
   5 C5             2.2770     0.3884    -0.1089 C.2     
   6 C6             1.2892    -0.5679    -0.1249 C.2     
   7 C7             3.6576     0.1236    -0.0326 C.2     
   8 C8             4.6309     1.2320    -0.1476 C.ar    
   9 O9             4.0513    -1.0192     0.1282 O.2     
  10 N10            1.5431    -1.9292    -0.0662 N.pl3   
  11 N11           -1.1643     2.1048    -0.3413 N.pl3   
  12 N12           -2.1167    -1.4718    -0.2612 N.1     
  13 C13            5.2814     1.7142     0.9888 C.ar    
  14 C14           -1.0756     3.5665    -0.3860 C.3     
  15 C15           -0.8460     4.0125    -1.8071 C.2     
  16 O16           -0.7317     5.3197    -2.0900 O.3     
  17 C17           -2.5513     3.8227     1.6138 C.3     
  18 C18           -2.3805     4.1727     0.1342 C.3     
  19 C19            6.1882     2.7476     0.8749 C.ar    
  20 C20            6.4538     3.3066    -0.3627 C.ar    
  21 C21            5.8128     2.8346    -1.4939 C.ar    
  22 C22            4.9070     1.7967    -1.3951 C.ar    
  23 Cl23           4.1035     1.2047    -2.8155 Cl      
  24 O24           -0.7646     3.1935    -2.6917 O.2     
  25 C25           -0.5115     5.6764    -3.4802 C.3     
  26 S26           -4.0984     4.5414     2.2306 S.3     
  27 C27           -4.1226     4.0266     3.9699 C.3     
  28 H28            2.4568    -2.2501    -0.0105 H       
  29 H29            0.8072    -2.5609    -0.0808 H       
  30 H30           -2.0309     1.6703    -0.3731 H       
  31 H31            5.0751     1.2794     1.9557 H       
  32 H32           -0.2462     3.8995     0.2379 H       
  33 H33           -2.5824     2.7393     1.7296 H       
  34 H34           -1.7121     4.2248     2.1815 H       
  35 H35           -2.3494     5.2561     0.0184 H       
  36 H36           -3.2197     3.7706    -0.4335 H       
  37 H37            6.6918     3.1216     1.7541 H       
  38 H38            7.1647     4.1154    -0.4458 H       
  39 H39            6.0241     3.2757    -2.4568 H       
  40 H40           -1.3453     5.3178    -4.0838 H       
  41 H41           -0.4377     6.7602    -3.5699 H       
  42 H42            0.4137     5.2189    -3.8305 H       
  43 H43           -4.1144     2.9381     4.0267 H       
  44 H44           -3.2441     4.4236     4.4786 H       
  45 H45           -5.0238     4.4087     4.4494 H       
@<TRIPOS>BOND
   1    1    2 2
   2    1    4 1
   3    1   11 1
   4    2    3 1
   5    2    6 1
   6    3   12 3
   7    4    5 1
   8    5    6 2
   9    5    7 1
  10    6   10 1
  11    7    8 1
  12    7    9 2
  13    8   13 ar
  14    8   22 ar
  15   10   28 1
  16   10   29 1
  17   11   14 1
  18   11   30 1
  19   13   19 ar
  20   13   31 1
  21   14   15 1
  22   14   18 1
  23   14   32 1
  24   15   16 1
  25   15   24 2
  26   16   25 1
  27   17   18 1
  28   17   26 1
  29   17   33 1
  30   17   34 1
  31   18   35 1
  32   18   36 1
  33   19   20 ar
  34   19   37 1
  35   20   21 ar
  36   20   38 1
  37   21   22 ar
  38   21   39 1
  39   22   23 1
  40   25   40 1
  41   25   41 1
  42   25   42 1
  43   26   27 1
  44   27   43 1
  45   27   44 1
  46   27   45 1

#	End of record

