#	Name: ASD01880191
#	Creating user name:	WinNT
#	Creation time:	15. 06. 2019 19:40

#	Modifying user name:	WinNT
#	Modification time:	15. 06. 2019 19:40

#	Program:	/corina/corina34_cracker 3.40 0067  02.08.2006

@<TRIPOS>MOLECULE
ASD01880191
  52   57    0    0    0
SMALL
NO_CHARGES


@<TRIPOS>ATOM
   1 C1            -0.0189     1.5035    -0.0301 C.2     
   2 C2             0.0008    -0.0021    -0.0910 C.3     
   3 N3             0.0369    -0.5469     1.2728 N.3     
   4 C4            -0.1837    -2.0160     1.2652 C.3     
   5 C5            -0.6519    -2.3465     2.6987 C.3     
   6 C6            -1.2443    -1.0292     3.2406 C.3     
   7 C7            -1.0841    -0.0137     2.0889 C.3     
   8 C8            -2.1462    -2.2437     3.0112 C.3     
   9 H9            -1.0394    -0.6812     4.2530 H       
  10 H10           -0.0061    -2.9790     3.3077 H       
  11 C11           -2.6605    -2.9836     4.2476 C.3     
  12 O12           -4.0835    -2.8706     4.3127 O.3     
  13 C13           -4.7034    -3.4768     5.3592 C.ar    
  14 C14           -6.0833    -3.4073     5.4845 C.ar    
  15 C15           -6.7110    -4.0243     6.5493 C.ar    
  16 C16           -5.9651    -4.7107     7.4896 C.ar    
  17 C17           -4.5897    -4.7811     7.3673 C.ar    
  18 C18           -3.9578    -4.1710     6.3010 C.ar    
  19 N19            1.0375     2.2631    -0.0227 N.2     
  20 C20            0.6620     3.5666     0.0379 C.ar    
  21 C21           -0.7425     3.5868     0.0694 C.ar    
  22 N22           -1.1438     2.2668     0.0193 N.pl3   
  23 C23           -2.5250     1.7783     0.0276 C.3     
  24 C24           -3.4283     2.1939    -1.1352 C.3     
  25 C25           -2.9186     0.7546    -1.0392 C.3     
  26 C26            1.3678     4.7723     0.0709 C.ar    
  27 C27            0.6896     5.9564     0.1333 C.ar    
  28 C28           -0.6977     5.9769     0.1645 C.ar    
  29 C29           -1.4146     4.7999     0.1328 C.ar    
  30 H30           -0.8951    -0.3569    -0.6004 H       
  31 H31            0.8843    -0.3321    -0.6375 H       
  32 H32           -0.9557    -2.2808     0.5426 H       
  33 H33            0.7455    -2.5388     1.0388 H       
  34 H34           -0.8328     0.9711     2.4827 H       
  35 H35           -1.9970     0.0349     1.4952 H       
  36 H36           -2.8345    -2.2059     2.1669 H       
  37 H37           -2.3821    -4.0355     4.1836 H       
  38 H38           -2.2199    -2.5450     5.1430 H       
  39 H39           -6.6663    -2.8709     4.7505 H       
  40 H40           -7.7851    -3.9702     6.6474 H       
  41 H41           -6.4577    -5.1924     8.3213 H       
  42 H42           -4.0092    -5.3173     8.1035 H       
  43 H43           -2.8834    -4.2263     6.2058 H       
  44 H44           -2.9836     1.6819     1.0117 H       
  45 H45           -4.4814     2.3706    -0.9162 H       
  46 H46           -2.9951     2.8309    -1.9064 H       
  47 H47           -2.1500     0.4445    -1.7471 H       
  48 H48           -3.6363    -0.0158    -0.7570 H       
  49 H49            2.4475     4.7679     0.0475 H       
  50 H50            1.2386     6.8861     0.1590 H       
  51 H51           -1.2191     6.9214     0.2142 H       
  52 H52           -2.4942     4.8215     0.1573 H       
@<TRIPOS>BOND
   1    1    2 1
   2    1   19 2
   3    1   22 1
   4    2    3 1
   5    2   30 1
   6    2   31 1
   7    3    4 1
   8    3    7 1
   9    4    5 1
  10    4   32 1
  11    4   33 1
  12    5    6 1
  13    5   10 1
  14    5    8 1
  15    6    7 1
  16    6    9 1
  17    6    8 1
  18    7   34 1
  19    7   35 1
  20    8   11 1
  21    8   36 1
  22   11   12 1
  23   11   37 1
  24   11   38 1
  25   12   13 1
  26   13   14 ar
  27   13   18 ar
  28   14   15 ar
  29   14   39 1
  30   15   16 ar
  31   15   40 1
  32   16   17 ar
  33   16   41 1
  34   17   18 ar
  35   17   42 1
  36   18   43 1
  37   19   20 1
  38   20   21 ar
  39   20   26 ar
  40   21   22 1
  41   21   29 ar
  42   22   23 1
  43   23   24 1
  44   23   25 1
  45   23   44 1
  46   24   25 1
  47   24   45 1
  48   24   46 1
  49   25   47 1
  50   25   48 1
  51   26   27 ar
  52   26   49 1
  53   27   28 ar
  54   27   50 1
  55   28   29 ar
  56   28   51 1
  57   29   52 1

#	End of record

