#	Name: ASD05740154
#	Creating user name:	WinNT
#	Creation time:	15. 06. 2019 21:02

#	Modifying user name:	WinNT
#	Modification time:	15. 06. 2019 21:02

#	Program:	/corina/corina34_cracker 3.40 0067  02.08.2006

@<TRIPOS>MOLECULE
ASD05740154
  65   70    0    0    0
SMALL
NO_CHARGES


@<TRIPOS>ATOM
   1 C1             0.9531    -0.8271    -0.0440 C.3     
   2 N2             0.0371    -0.1445     0.8805 N.3     
   3 C3            -1.2685    -0.6286     0.7416 C.ar    
   4 C4            -2.2886    -0.1107     1.5289 C.ar    
   5 C5            -3.5768    -0.5884     1.3918 C.ar    
   6 C6            -3.8523    -1.5871     0.4670 C.ar    
   7 C7            -2.8322    -2.1053    -0.3199 C.ar    
   8 C8            -1.5452    -1.6230    -0.1876 C.ar    
   9 N9            -5.1590    -2.0720     0.3283 N.pl3   
  10 C10           -6.2334    -1.2225     0.5064 C.ar    
  11 N11           -6.0003     0.0714     0.6975 N.ar    
  12 N12           -7.4577    -1.7281     0.4747 N.ar    
  13 C13           -8.5129    -0.9414     0.6420 C.ar    
  14 C14           -8.3033     0.4392     0.8533 C.ar    
  15 C15           -6.9916     0.9266     0.8729 C.ar    
  16 N16           -9.7918    -1.4348     0.6140 N.am    
  17 C17          -10.8502    -0.6228     0.7850 C.2     
  18 C18          -10.6974     0.7620     0.9988 C.2     
  19 C19           -9.4567     1.3145     1.0386 C.2     
  20 C20          -10.0085    -2.8669     0.3943 C.3     
  21 O21          -11.9723    -1.0974     0.7538 O.2     
  22 C22            0.5017    -0.2735     2.2687 C.3     
  23 C23            1.8991     0.3378     2.3951 C.3     
  24 N24            2.8151    -0.3448     1.4706 N.3     
  25 C25            2.3504    -0.2158     0.0824 C.3     
  26 C26            4.1856     0.1634     1.6164 C.3     
  27 C27          -10.8444    -3.0618    -0.8692 C.3     
  28 C28          -11.2411    -4.5400    -0.9627 C.3     
  29 C29          -12.2541    -4.8375     0.1409 C.3     
  30 C30          -11.7408    -4.3601     1.4742 C.ar    
  31 C31          -10.7127    -3.4521     1.5904 C.ar    
  32 C32          -12.3431    -4.8674     2.6186 C.ar    
  33 C33          -11.9213    -4.4667     3.8692 C.ar    
  34 C34          -10.8909    -3.5521     3.9858 C.ar    
  35 C35          -10.2907    -3.0481     2.8508 C.ar    
  36 H36            0.9963    -1.8877     0.2039 H       
  37 H37            0.5945    -0.7067    -1.0663 H       
  38 H38           -2.0742     0.6655     2.2486 H       
  39 H39           -4.3701    -0.1857     2.0041 H       
  40 H40           -3.0464    -2.8825    -1.0386 H       
  41 H41           -0.7519    -2.0260    -0.7996 H       
  42 H42           -5.3094    -3.0044     0.1073 H       
  43 H43           -6.7944     1.9765     1.0322 H       
  44 H44          -11.5691     1.3857     1.1317 H       
  45 H45           -9.3272     2.3741     1.2021 H       
  46 H46           -9.0452    -3.3610     0.2677 H       
  47 H47           -0.1859     0.2505     2.9325 H       
  48 H48            0.5399    -1.3278     2.5429 H       
  49 H49            1.8558     1.3984     2.1471 H       
  50 H50            2.2577     0.2174     3.4173 H       
  51 H51            3.0381    -0.7398    -0.5814 H       
  52 H52            2.3123     0.8385    -0.1918 H       
  53 H53            4.5291    -0.0055     2.6370 H       
  54 H54            4.8426    -0.3587     0.9208 H       
  55 H55            4.2021     1.2315     1.3996 H       
  56 H56          -11.7406    -2.4438    -0.8155 H       
  57 H57          -10.2574    -2.7831    -1.7443 H       
  58 H58          -11.6896    -4.7388    -1.9360 H       
  59 H59          -10.3588    -5.1660    -0.8297 H       
  60 H60          -13.1919    -4.3303    -0.0857 H       
  61 H61          -12.4297    -5.9123     0.1874 H       
  62 H62          -13.1486    -5.5812     2.5283 H       
  63 H63          -12.3945    -4.8656     4.7542 H       
  64 H64          -10.5573    -3.2333     4.9623 H       
  65 H65           -9.4862    -2.3336     2.9427 H       
@<TRIPOS>BOND
   1    1    2 1
   2    1   25 1
   3    1   36 1
   4    1   37 1
   5    2    3 1
   6    2   22 1
   7    3    4 ar
   8    3    8 ar
   9    4    5 ar
  10    4   38 1
  11    5    6 ar
  12    5   39 1
  13    6    7 ar
  14    6    9 1
  15    7    8 ar
  16    7   40 1
  17    8   41 1
  18    9   10 1
  19    9   42 1
  20   10   11 ar
  21   10   12 ar
  22   11   15 ar
  23   12   13 ar
  24   13   14 ar
  25   13   16 1
  26   14   15 ar
  27   14   19 1
  28   15   43 1
  29   16   17 am
  30   16   20 1
  31   17   18 1
  32   17   21 2
  33   18   19 2
  34   18   44 1
  35   19   45 1
  36   20   27 1
  37   20   31 1
  38   20   46 1
  39   22   23 1
  40   22   47 1
  41   22   48 1
  42   23   24 1
  43   23   49 1
  44   23   50 1
  45   24   25 1
  46   24   26 1
  47   25   51 1
  48   25   52 1
  49   26   53 1
  50   26   54 1
  51   26   55 1
  52   27   28 1
  53   27   56 1
  54   27   57 1
  55   28   29 1
  56   28   58 1
  57   28   59 1
  58   29   30 1
  59   29   60 1
  60   29   61 1
  61   30   31 ar
  62   30   32 ar
  63   31   35 ar
  64   32   33 ar
  65   32   62 1
  66   33   34 ar
  67   33   63 1
  68   34   35 ar
  69   34   64 1
  70   35   65 1

#	End of record

