#	Name: ASD01816567
#	Creating user name:	WinNT
#	Creation time:	15. 06. 2019 19:35

#	Modifying user name:	WinNT
#	Modification time:	15. 06. 2019 19:35

#	Program:	/corina/corina34_cracker 3.40 0067  02.08.2006

@<TRIPOS>MOLECULE
ASD01816567
  57   62    0    0    0
SMALL
NO_CHARGES


@<TRIPOS>ATOM
   1 C1             0.1762     1.8380     0.7326 C.ar    
   2 C2            -0.0092     0.4705     0.6984 C.ar    
   3 C3             1.0589    -0.3995     0.5288 C.ar    
   4 C4             2.3535     0.0814     0.4605 C.ar    
   5 C5             2.5234     1.4870     0.3968 C.ar    
   6 C6             1.4464     2.3522     0.5627 C.ar    
   7 N7             3.4998    -0.6836     0.5386 N.pl3   
   8 C8             4.6901    -0.2737     0.0499 C.2     
   9 C9             4.9455     1.0529    -0.1711 C.2     
  10 C10            3.8573     2.0268     0.0693 C.2     
  11 C11            6.0886     1.8536    -0.5946 C.2     
  12 N12            5.6973     3.1432    -0.4992 N.am    
  13 N13            4.3588     3.2162    -0.1055 N.2     
  14 C14            6.5166     4.2482    -0.7579 C.ar    
  15 O15            7.1775     1.4433    -0.9615 O.2     
  16 C16            3.5450    -1.9547     1.2678 C.3     
  17 C17            4.4153    -1.8027     2.4887 C.ar    
  18 C18            3.8818    -1.2900     3.6569 C.ar    
  19 C19            4.6770    -1.1491     4.7773 C.ar    
  20 C20            6.0132    -1.5232     4.7301 C.ar    
  21 C21            6.5459    -2.0380     3.5559 C.ar    
  22 C22            5.7443    -2.1814     2.4402 C.ar    
  23 C23            6.6831     5.2326     0.2080 C.ar    
  24 N24            6.8229    -1.3809     5.8655 N.pl3   
  25 C25            8.1328    -1.7048     5.9545 C.2     
  26 C26            8.5436    -1.4169     7.2112 C.2     
  27 C27            7.4498    -0.9001     7.9143 C.2     
  28 N28            6.4200    -0.8725     7.1071 N.2     
  29 F29            1.6416     3.6897     0.5582 F       
  30 C30            7.1693     4.3599    -1.9786 C.ar    
  31 C31            7.9775     5.4513    -2.2306 C.ar    
  32 C32            8.1369     6.4320    -1.2690 C.ar    
  33 C33            7.4924     6.3212    -0.0502 C.ar    
  34 C34            5.9809     5.1129     1.5360 C.3     
  35 C35            0.6950    -1.8525     0.3375 C.3     
  36 H36           -0.6606     2.4999     0.8948 H       
  37 H37           -1.0033     0.0594     0.8042 H       
  38 H38            5.4462    -1.0102    -0.1679 H       
  39 H39            2.5368    -2.2346     1.5729 H       
  40 H40            3.9575    -2.7297     0.6218 H       
  41 H41            2.8423    -0.9992     3.6930 H       
  42 H42            4.2599    -0.7480     5.6892 H       
  43 H43            7.5850    -2.3296     3.5160 H       
  44 H44            6.1581    -2.5819     1.5265 H       
  45 H45            8.7416    -2.1193     5.1646 H       
  46 H46            9.5399    -1.5606     7.6026 H       
  47 H47            7.4555    -0.5755     8.9443 H       
  48 H48            7.0455     3.5940    -2.7300 H       
  49 H49            8.4857     5.5387    -3.1795 H       
  50 H50            8.7694     7.2845    -1.4685 H       
  51 H51            7.6187     7.0891     0.6986 H       
  52 H52            6.6185     4.5740     2.2369 H       
  53 H53            5.7712     6.1084     1.9272 H       
  54 H54            5.0451     4.5696     1.4045 H       
  55 H55            0.4251    -2.0254    -0.7044 H       
  56 H56            1.5478    -2.4784     0.6005 H       
  57 H57           -0.1506    -2.1027     0.9781 H       
@<TRIPOS>BOND
   1    1    2 ar
   2    1    6 ar
   3    1   36 1
   4    2    3 ar
   5    2   37 1
   6    3    4 ar
   7    3   35 1
   8    4    5 ar
   9    4    7 1
  10    5    6 ar
  11    5   10 1
  12    6   29 1
  13    7    8 1
  14    7   16 1
  15    8    9 2
  16    8   38 1
  17    9   10 1
  18    9   11 1
  19   10   13 2
  20   11   12 am
  21   11   15 2
  22   12   13 1
  23   12   14 1
  24   14   30 ar
  25   14   23 ar
  26   16   17 1
  27   16   39 1
  28   16   40 1
  29   17   18 ar
  30   17   22 ar
  31   18   19 ar
  32   18   41 1
  33   19   20 ar
  34   19   42 1
  35   20   21 ar
  36   20   24 1
  37   21   22 ar
  38   21   43 1
  39   22   44 1
  40   23   34 1
  41   23   33 ar
  42   24   25 1
  43   24   28 1
  44   25   26 2
  45   25   45 1
  46   26   27 1
  47   26   46 1
  48   27   28 2
  49   27   47 1
  50   30   31 ar
  51   30   48 1
  52   31   32 ar
  53   31   49 1
  54   32   33 ar
  55   32   50 1
  56   33   51 1
  57   34   52 1
  58   34   53 1
  59   34   54 1
  60   35   55 1
  61   35   56 1
  62   35   57 1

#	End of record

