#	Name: ASD01028474
#	Creating user name:	WinNT
#	Creation time:	15. 06. 2019 18:57

#	Modifying user name:	WinNT
#	Modification time:	15. 06. 2019 18:57

#	Program:	/corina/corina34_cracker 3.40 0067  02.08.2006

@<TRIPOS>MOLECULE
ASD01028474
  73   78    0    0    0
SMALL
NO_CHARGES


@<TRIPOS>ATOM
   1 C1            -0.0171     1.4118     0.0098 C.ar    
   2 C2             0.0021    -0.0041     0.0020 C.ar    
   3 C3             1.2105     2.1116     0.0018 C.ar    
   4 C4             2.3793     1.3714    -0.0133 C.ar    
   5 C5             2.3160    -0.0162    -0.0202 C.ar    
   6 N6             1.1704    -0.6565    -0.0123 N.ar    
   7 O7             1.2420     3.4670     0.0084 O.3     
   8 C8             2.5299     4.0861    -0.0005 C.3     
   9 C9             2.3673     5.5842     0.0086 C.2     
  10 N10            2.2915     6.3710     1.1037 N.pl3   
  11 C11            2.1478     7.6560     0.6386 C.2     
  12 N12            2.1436     7.5868    -0.6828 N.2     
  13 N13            2.2796     6.3587    -1.0443 N.2     
  14 N14            2.3301     6.1238     2.4775 N.2     
  15 C15            2.2297     7.1144     3.3363 C.2     
  16 C16            2.0812     8.4448     2.8897 C.2     
  17 C17            2.0408     8.7163     1.5588 C.2     
  18 C18            2.2725     6.8300     4.7917 C.2     
  19 C19           -1.2152    -0.7043     0.0100 C.ar    
  20 C20           -2.4012    -0.0065     0.0251 C.ar    
  21 C21           -2.4085     1.3917     0.0322 C.ar    
  22 C22           -1.2431     2.0938     0.0309 C.ar    
  23 O23           -3.5786    -0.6840     0.0328 O.3     
  24 C24           -4.7758     0.0961     0.0485 C.3     
  25 C25            2.4105     5.6012     5.3702 C.2     
  26 N26            2.4034     5.7764     6.7059 N.pl3   
  27 N27            2.2577     7.1441     6.9678 N.2     
  28 C28            2.1842     7.7797     5.8288 C.2     
  29 C29            2.5260     4.7180     7.7114 C.3     
  30 C30            1.1479     4.1100     7.9823 C.3     
  31 C31            1.2745     3.0276     9.0590 C.3     
  32 N32            2.2904     2.0548     8.6344 N.am    
  33 C33            3.6252     2.5438     8.2629 C.3     
  34 C34            3.4722     3.6316     7.1952 C.3     
  35 C35            2.0034     0.7388     8.5869 C.2     
  36 O36            0.8959     0.3469     8.8971 O.2     
  37 O37            2.9440    -0.1416     8.1960 O.3     
  38 C38            2.5647    -1.5429     8.1689 C.3     
  39 C39            1.3941    -1.7358     7.2028 C.3     
  40 C40            3.7545    -2.3845     7.7029 C.3     
  41 C41            2.1458    -1.9851     9.5724 C.3     
  42 H42            3.3370     1.8705    -0.0202 H       
  43 H43            3.2348    -0.5838    -0.0321 H       
  44 H44            3.0883     3.7758     0.8827 H       
  45 H45            3.0716     3.7849    -0.8972 H       
  46 H46            1.9996     9.2483     3.6067 H       
  47 H47            1.9272     9.7325     1.2113 H       
  48 H48           -1.2205    -1.7843     0.0039 H       
  49 H49           -3.3501     1.9205     0.0433 H       
  50 H50           -1.2617     3.1736     0.0364 H       
  51 H51           -5.6412    -0.5666     0.0533 H       
  52 H52           -4.7911     0.7202     0.9420 H       
  53 H53           -4.8082     0.7297    -0.8378 H       
  54 H54            2.5076     4.6592     4.8510 H       
  55 H55            2.0691     8.8463     5.7041 H       
  56 H56            2.9252     5.1385     8.6344 H       
  57 H57            0.4681     4.8889     8.3276 H       
  58 H58            0.7589     3.6673     7.0653 H       
  59 H59            1.5767     3.4836    10.0017 H       
  60 H60            0.3162     2.5238     9.1850 H       
  61 H61            4.1191     2.9603     9.1408 H       
  62 H62            4.2178     1.7207     7.8637 H       
  63 H63            3.0614     3.1934     6.2856 H       
  64 H64            4.4468     4.0700     6.9803 H       
  65 H65            1.6925    -1.4208     6.2029 H       
  66 H66            1.1093    -2.7878     7.1824 H       
  67 H67            0.5465    -1.1363     7.5347 H       
  68 H68            4.5884    -2.2471     8.3912 H       
  69 H69            3.4697    -3.4364     7.6826 H       
  70 H70            4.0529    -2.0695     6.7030 H       
  71 H71            1.2981    -1.3856     9.9044 H       
  72 H72            1.8610    -3.0371     9.5521 H       
  73 H73            2.9797    -1.8477    10.2607 H       
@<TRIPOS>BOND
   1    1    2 ar
   2    1    3 ar
   3    1   22 ar
   4    2   19 ar
   5    2    6 ar
   6    3    4 ar
   7    3    7 1
   8    4    5 ar
   9    4   42 1
  10    5    6 ar
  11    5   43 1
  12    7    8 1
  13    8    9 1
  14    8   44 1
  15    8   45 1
  16    9   10 1
  17    9   13 2
  18   10   11 1
  19   10   14 1
  20   11   12 2
  21   11   17 1
  22   12   13 1
  23   14   15 2
  24   15   16 1
  25   15   18 1
  26   16   17 2
  27   16   46 1
  28   17   47 1
  29   18   25 2
  30   18   28 1
  31   19   20 ar
  32   19   48 1
  33   20   21 ar
  34   20   23 1
  35   21   22 ar
  36   21   49 1
  37   22   50 1
  38   23   24 1
  39   24   51 1
  40   24   52 1
  41   24   53 1
  42   25   26 1
  43   25   54 1
  44   26   27 1
  45   26   29 1
  46   27   28 2
  47   28   55 1
  48   29   30 1
  49   29   34 1
  50   29   56 1
  51   30   31 1
  52   30   57 1
  53   30   58 1
  54   31   32 1
  55   31   59 1
  56   31   60 1
  57   32   33 1
  58   32   35 am
  59   33   34 1
  60   33   61 1
  61   33   62 1
  62   34   63 1
  63   34   64 1
  64   35   36 2
  65   35   37 1
  66   37   38 1
  67   38   39 1
  68   38   40 1
  69   38   41 1
  70   39   65 1
  71   39   66 1
  72   39   67 1
  73   40   68 1
  74   40   69 1
  75   40   70 1
  76   41   71 1
  77   41   72 1
  78   41   73 1

#	End of record

