#	Name: ASD01900764
#	Creating user name:	WinNT
#	Creation time:	15. 06. 2019 19:52

#	Modifying user name:	WinNT
#	Modification time:	15. 06. 2019 19:52

#	Program:	/corina/corina34_cracker 3.40 0067  02.08.2006

@<TRIPOS>MOLECULE
ASD01900764
  53   57    0    0    0
SMALL
NO_CHARGES


@<TRIPOS>ATOM
   1 C1            -0.0157     1.4040    -0.1136 C.ar    
   2 C2             0.0117     0.0195    -0.1178 C.ar    
   3 C3            -1.1601    -0.7086    -0.0670 C.ar    
   4 C4            -2.3828    -0.0531    -0.0103 C.ar    
   5 C5            -2.4058     1.3481    -0.0101 C.ar    
   6 O6            -3.5355    -0.7536     0.0514 O.3     
   7 C7            -4.7266    -0.1778    -0.1889 C.2     
   8 C8            -4.9012     1.1681    -0.2046 C.2     
   9 C9            -3.7271     2.0248     0.0375 C.2     
  10 C10           -5.8896    -1.0431    -0.4459 C.2     
  11 N11           -7.1040    -0.4928    -0.6914 N.2     
  12 C12           -8.1547    -1.2198    -0.9233 C.2     
  13 N13           -8.0909    -2.5862    -0.9316 N.pl3   
  14 C14           -6.8807    -3.2117    -0.6882 C.2     
  15 C15           -5.7431    -2.4202    -0.4429 C.2     
  16 C16           -1.2224     2.0732    -0.0541 C.ar    
  17 C17           -9.0309    -3.5485    -1.1436 C.2     
  18 C18           -8.4468    -4.7672    -1.0406 C.2     
  19 C19           -7.0919    -4.5762    -0.7540 C.2     
  20 C20            1.2738     2.1820    -0.1677 C.3     
  21 N21            1.6329     2.4378    -1.5690 N.3     
  22 C22            2.8878     3.1960    -1.6609 C.3     
  23 C23            3.2281     3.4425    -3.1321 C.3     
  24 C24            4.5154     4.2203    -3.2264 C.ar    
  25 C25            5.7230     3.5512    -3.2986 C.ar    
  26 C26            6.9041     4.2634    -3.3855 C.ar    
  27 C27            6.8777     5.6476    -3.4003 C.ar    
  28 C28            5.6677     6.3167    -3.3279 C.ar    
  29 C29            4.4875     5.6023    -3.2463 C.ar    
  30 F30            8.0318     6.3449    -3.4848 F       
  31 N31           -3.8419     3.3088     0.2804 N.2     
  32 O32           -2.7031     4.0637     0.6524 O.3     
  33 H33            0.9597    -0.4961    -0.1616 H       
  34 H34           -1.1257    -1.7881    -0.0718 H       
  35 H35           -5.8740     1.5992    -0.3896 H       
  36 H36           -9.1006    -0.7346    -1.1136 H       
  37 H37           -4.7828    -2.8750    -0.2497 H       
  38 H38           -1.2458     3.1529    -0.0500 H       
  39 H39          -10.0740    -3.3693    -1.3590 H       
  40 H40           -8.9418    -5.7198    -1.1593 H       
  41 H41           -6.3506    -5.3484    -0.6110 H       
  42 H42            1.1480     3.1307     0.3541 H       
  43 H43            2.0659     1.6063     0.3110 H       
  44 H44            1.6922     1.5759    -2.0902 H       
  45 H45            2.7731     4.1517    -1.1494 H       
  46 H46            3.6910     2.6273    -1.1925 H       
  47 H47            3.3427     2.4868    -3.6436 H       
  48 H48            2.4248     4.0113    -3.6005 H       
  49 H49            5.7433     2.4714    -3.2867 H       
  50 H50            7.8474     3.7404    -3.4416 H       
  51 H51            5.6459     7.3965    -3.3394 H       
  52 H52            3.5435     6.1240    -3.1899 H       
  53 H53           -2.8863     4.9999     0.8106 H       
@<TRIPOS>BOND
   1    1    2 ar
   2    1   20 1
   3    1   16 ar
   4    2    3 ar
   5    2   33 1
   6    3    4 ar
   7    3   34 1
   8    4    5 ar
   9    4    6 1
  10    5   16 ar
  11    5    9 1
  12    6    7 1
  13    7    8 2
  14    7   10 1
  15    8    9 1
  16    8   35 1
  17    9   31 2
  18   10   11 1
  19   10   15 2
  20   11   12 2
  21   12   13 1
  22   12   36 1
  23   13   14 1
  24   13   17 1
  25   14   15 1
  26   14   19 2
  27   15   37 1
  28   16   38 1
  29   17   18 2
  30   17   39 1
  31   18   19 1
  32   18   40 1
  33   19   41 1
  34   20   21 1
  35   20   42 1
  36   20   43 1
  37   21   22 1
  38   21   44 1
  39   22   23 1
  40   22   45 1
  41   22   46 1
  42   23   24 1
  43   23   47 1
  44   23   48 1
  45   24   25 ar
  46   24   29 ar
  47   25   26 ar
  48   25   49 1
  49   26   27 ar
  50   26   50 1
  51   27   28 ar
  52   27   30 1
  53   28   29 ar
  54   28   51 1
  55   29   52 1
  56   31   32 1
  57   32   53 1

#	End of record

