#	Name: ASD01916497
#	Creating user name:	WinNT
#	Creation time:	15. 06. 2019 20:07

#	Modifying user name:	WinNT
#	Modification time:	15. 06. 2019 20:07

#	Program:	/corina/corina34_cracker 3.40 0067  02.08.2006

@<TRIPOS>MOLECULE
ASD01916497
  24   24    0    0    0
SMALL
NO_CHARGES


@<TRIPOS>ATOM
   1 C1            -0.0184     1.5028     0.0103 C.2     
   2 C2             0.0021    -0.0041     0.0020 C.3     
   3 N3             1.0915     2.1639     0.0033 N.2     
   4 N4            -1.2203     2.1751     0.0197 N.pl3   
   5 C5             1.4295    -0.4870    -0.0142 C.ar    
   6 C6             2.1291    -0.6161     1.1713 C.ar    
   7 C7             4.0481    -1.3733    -0.0440 C.ar    
   8 C8             2.0374    -0.8063    -1.2137 C.ar    
   9 C9             3.4383    -1.0590     1.1564 C.ar    
  10 C10            3.3470    -1.2493    -1.2286 C.ar    
  11 C11            1.4644    -0.2734     2.4796 C.3     
  12 O12            1.0723     3.5797     0.0110 O.3     
  13 H13           -0.4983    -0.3791     0.8948 H       
  14 H14           -0.5153    -0.3696    -0.8850 H       
  15 H15           -2.0537     1.6787     0.0209 H       
  16 H16           -1.2334     3.1450     0.0250 H       
  17 H17            5.0712    -1.7191    -0.0556 H       
  18 H18            1.4894    -0.7100    -2.1393 H       
  19 H19            3.9850    -1.1591     2.0824 H       
  20 H20            3.8234    -1.4949    -2.1662 H       
  21 H21            0.9766    -1.1609     2.8827 H       
  22 H22            2.2146     0.0815     3.1863 H       
  23 H23            0.7213     0.5070     2.3162 H       
  24 H24            1.9502     3.9850     0.0048 H       
@<TRIPOS>BOND
   1    1    2 1
   2    1    3 2
   3    1    4 1
   4    2    5 1
   5    2   13 1
   6    2   14 1
   7    3   12 1
   8    4   15 1
   9    4   16 1
  10    5    6 ar
  11    5    8 ar
  12    6    9 ar
  13    6   11 1
  14    7    9 ar
  15    7   10 ar
  16    7   17 1
  17    8   10 ar
  18    8   18 1
  19    9   19 1
  20   10   20 1
  21   11   21 1
  22   11   22 1
  23   11   23 1
  24   12   24 1

#	End of record

