#	Name: ASD03320111
#	Creating user name:	WinNT
#	Creation time:	15. 06. 2019 20:36

#	Modifying user name:	WinNT
#	Modification time:	15. 06. 2019 20:36

#	Program:	/corina/corina34_cracker 3.40 0067  02.08.2006

@<TRIPOS>MOLECULE
ASD03320111
  52   55    0    0    0
SMALL
NO_CHARGES


@<TRIPOS>ATOM
   1 C1            -0.0248     1.3868    -0.0237 C.2     
   2 C2            -0.1085    -0.0863    -0.0186 C.ar    
   3 C3             1.0566    -0.8632    -0.0699 C.ar    
   4 C4             0.9252    -2.2489    -0.0628 C.ar    
   5 C5            -0.3626    -2.8108    -0.0049 C.ar    
   6 N6            -1.4367    -2.0374     0.0419 N.ar    
   7 C7            -1.3494    -0.7236     0.0431 C.ar    
   8 O8             1.0600     1.9340    -0.0726 O.2     
   9 N9            -1.1510     2.1259     0.0202 N.am    
  10 N10            2.2514    -4.2706    -0.8298 N.pl3   
  11 N11            3.5383    -4.7729    -0.5983 N.2     
  12 C12            4.1606    -3.9613     0.2185 C.2     
  13 C13            3.3016    -2.9108     0.5422 C.2     
  14 C14            2.1215    -3.1170    -0.1158 C.2     
  15 N15           -0.5090    -4.1856     0.0029 N.3     
  16 C16           -1.8318    -4.5807    -0.5277 C.3     
  17 C17           -2.2730    -5.8360     0.2476 C.3     
  18 C18           -1.1383    -6.1029     1.2631 C.3     
  19 C19           -0.4525    -4.7191     1.3880 C.3     
  20 C20           -2.4229    -7.0235    -0.7054 C.3     
  21 O21           -2.9434    -8.1457     0.0100 O.3     
  22 C22           -1.0701     3.5191     0.1358 C.ar    
  23 C23           -2.1017     4.3169    -0.3420 C.ar    
  24 C24           -2.0210     5.6920    -0.2269 C.ar    
  25 C25           -0.9081     6.2749     0.3667 C.ar    
  26 C26            0.1210     5.4778     0.8432 C.ar    
  27 C27            0.0387     4.1030     0.7333 C.ar    
  28 O28           -0.8281     7.6281     0.4797 O.3     
  29 C29            0.3443     8.1591     1.1005 C.3     
  30 F30            1.4736     7.7756     0.3692 F       
  31 F31            0.2625     9.5553     1.1341 F       
  32 F32            0.4447     7.6663     2.4060 F       
  33 F33           -3.0237     6.4690    -0.6917 F       
  34 H34            2.0307    -0.3991    -0.1140 H       
  35 H35           -2.2508    -0.1304     0.0876 H       
  36 H36           -2.0176     1.6928    -0.0283 H       
  37 H37            1.5754    -4.6700    -1.3994 H       
  38 H38            5.1702    -4.0844     0.5816 H       
  39 H39            3.5285    -2.0823     1.1968 H       
  40 H40           -2.5502    -3.7760    -0.3712 H       
  41 H41           -1.7523    -4.8096    -1.5905 H       
  42 H42           -3.2112    -5.6479     0.7696 H       
  43 H43           -1.5462    -6.4192     2.2231 H       
  44 H44           -0.4407    -6.8455     0.8757 H       
  45 H45            0.5812    -4.8302     1.7155 H       
  46 H46           -1.0066    -4.0754     2.0711 H       
  47 H47           -3.1063    -6.7580    -1.5119 H       
  48 H48           -1.4492    -7.2790    -1.1235 H       
  49 H49           -3.0647    -8.9365    -0.5331 H       
  50 H50           -2.9663     3.8632    -0.8035 H       
  51 H51            0.9859     5.9315     1.3041 H       
  52 H52            0.8391     3.4825     1.1085 H       
@<TRIPOS>BOND
   1    1    2 1
   2    1    8 2
   3    1    9 am
   4    2    3 ar
   5    2    7 ar
   6    3    4 ar
   7    3   34 1
   8    4    5 ar
   9    4   14 1
  10    5    6 ar
  11    5   15 1
  12    6    7 ar
  13    7   35 1
  14    9   22 1
  15    9   36 1
  16   10   11 1
  17   10   14 1
  18   10   37 1
  19   11   12 2
  20   12   13 1
  21   12   38 1
  22   13   14 2
  23   13   39 1
  24   15   16 1
  25   15   19 1
  26   16   17 1
  27   16   40 1
  28   16   41 1
  29   17   18 1
  30   17   20 1
  31   17   42 1
  32   18   19 1
  33   18   43 1
  34   18   44 1
  35   19   45 1
  36   19   46 1
  37   20   21 1
  38   20   47 1
  39   20   48 1
  40   21   49 1
  41   22   23 ar
  42   22   27 ar
  43   23   24 ar
  44   23   50 1
  45   24   25 ar
  46   24   33 1
  47   25   26 ar
  48   25   28 1
  49   26   27 ar
  50   26   51 1
  51   27   52 1
  52   28   29 1
  53   29   30 1
  54   29   31 1
  55   29   32 1

#	End of record

