#	Name: ASD03731381
#	Creating user name:	WinNT
#	Creation time:	15. 06. 2019 20:45

#	Modifying user name:	WinNT
#	Modification time:	15. 06. 2019 20:45

#	Program:	/corina/corina34_cracker 3.40 0067  02.08.2006

@<TRIPOS>MOLECULE
ASD03731381
  69   75    0    0    0
SMALL
NO_CHARGES


@<TRIPOS>ATOM
   1 O1            -3.9611     1.4440    -0.9762 O.3     
   2 C2            -4.5336     0.1368    -1.1672 C.3     
   3 O3            -3.4569    -0.6285    -1.7397 O.3     
   4 C4            -2.3100    -0.0391    -1.2898 C.ar    
   5 C5            -2.6205     1.2355    -0.8215 C.ar    
   6 C6            -1.0050    -0.4953    -1.2406 C.ar    
   7 C7             0.0051     0.3123    -0.7267 C.ar    
   8 C8            -0.3158     1.5868    -0.2695 C.ar    
   9 C9            -1.6172     2.0421    -0.3115 C.ar    
  10 O10            1.3353     0.0530    -0.5736 O.3     
  11 C11            0.9727     2.2144     0.1906 C.3     
  12 C12            2.0457     1.2955    -0.4094 C.3     
  13 N13            1.2711     4.3931     0.8139 N.am    
  14 C14            1.1176     3.6305    -0.2871 C.2     
  15 C15            1.0702     2.2869     1.6856 C.ar    
  16 C16            1.0166     1.3454     2.6891 C.ar    
  17 C17            1.1424     1.7338     4.0110 C.ar    
  18 C18            1.3219     3.0695     4.3217 C.ar    
  19 C19            1.3753     4.0164     3.3202 C.ar    
  20 C20            1.2499     3.6345     1.9867 C.ar    
  21 O21            1.1003     4.0132    -1.4379 O.2     
  22 C22            1.4411     5.8479     0.7838 C.3     
  23 C23            0.0701     6.5232     0.8564 C.3     
  24 C24            0.2477     8.0425     0.8250 C.3     
  25 N25           -1.0686     8.6909     0.8947 N.3     
  26 C26           -0.9370    10.1537     0.8669 C.3     
  27 C27           -2.3255    10.7922     0.9410 C.3     
  28 C28           -2.9543    10.4738     2.2730 C.ar    
  29 C29           -2.2641    10.7320     3.4426 C.ar    
  30 C30           -2.8410    10.4399     4.6644 C.ar    
  31 C31           -4.1081     9.8899     4.7167 C.ar    
  32 C32           -4.7987     9.6326     3.5471 C.ar    
  33 C33           -4.2236     9.9287     2.3254 C.ar    
  34 C34           -2.2001    12.2863     0.7890 C.ar    
  35 C35           -2.9677    12.9525    -0.1478 C.ar    
  36 C36           -2.8527    14.3230    -0.2873 C.ar    
  37 C37           -1.9704    15.0273     0.5105 C.ar    
  38 C38           -1.2034    14.3611     1.4480 C.ar    
  39 C39           -1.3216    12.9912     1.5904 C.ar    
  40 H40           -4.8412    -0.2898    -0.2125 H       
  41 H41           -5.3773     0.1851    -1.8557 H       
  42 H42           -0.7686    -1.4848    -1.6031 H       
  43 H43           -1.8541     3.0305     0.0539 H       
  44 H44            2.8818     1.1754     0.2795 H       
  45 H45            2.3873     1.6763    -1.3719 H       
  46 H46            0.8760     0.3030     2.4441 H       
  47 H47            1.1001     0.9959     4.7984 H       
  48 H48            1.4203     3.3726     5.3536 H       
  49 H49            1.5148     5.0576     3.5710 H       
  50 H50            2.0457     6.1607     1.6351 H       
  51 H51            1.9397     6.1364    -0.1415 H       
  52 H52           -0.5345     6.2104     0.0051 H       
  53 H53           -0.4285     6.2347     1.7818 H       
  54 H54            0.8523     8.3553     1.6763 H       
  55 H55            0.7463     8.3310    -0.1003 H       
  56 H56           -1.6706     8.3678     0.1523 H       
  57 H57           -0.3406    10.4812     1.7185 H       
  58 H58           -0.4467    10.4569    -0.0582 H       
  59 H59           -2.9505    10.3967     0.1403 H       
  60 H60           -1.2741    11.1616     3.4017 H       
  61 H61           -2.3014    10.6409     5.5781 H       
  62 H62           -4.5585     9.6610     5.6712 H       
  63 H63           -5.7886     9.2026     3.5879 H       
  64 H64           -4.7646     9.7311     1.4118 H       
  65 H65           -3.6571    12.4023    -0.7711 H       
  66 H66           -3.4519    14.8435    -1.0197 H       
  67 H67           -1.8800    16.0979     0.4011 H       
  68 H68           -0.5138    14.9113     2.0710 H       
  69 H69           -0.7251    12.4713     2.3254 H       
@<TRIPOS>BOND
   1    1    2 1
   2    1    5 1
   3    2    3 1
   4    2   40 1
   5    2   41 1
   6    3    4 1
   7    4    5 ar
   8    4    6 ar
   9    5    9 ar
  10    6    7 ar
  11    6   42 1
  12    7    8 ar
  13    7   10 1
  14    8    9 ar
  15    8   11 1
  16    9   43 1
  17   10   12 1
  18   11   12 1
  19   11   14 1
  20   11   15 1
  21   12   44 1
  22   12   45 1
  23   13   14 am
  24   13   20 1
  25   13   22 1
  26   14   21 2
  27   15   16 ar
  28   15   20 ar
  29   16   17 ar
  30   16   46 1
  31   17   18 ar
  32   17   47 1
  33   18   19 ar
  34   18   48 1
  35   19   20 ar
  36   19   49 1
  37   22   23 1
  38   22   50 1
  39   22   51 1
  40   23   24 1
  41   23   52 1
  42   23   53 1
  43   24   25 1
  44   24   54 1
  45   24   55 1
  46   25   26 1
  47   25   56 1
  48   26   27 1
  49   26   57 1
  50   26   58 1
  51   27   28 1
  52   27   34 1
  53   27   59 1
  54   28   29 ar
  55   28   33 ar
  56   29   30 ar
  57   29   60 1
  58   30   31 ar
  59   30   61 1
  60   31   32 ar
  61   31   62 1
  62   32   33 ar
  63   32   63 1
  64   33   64 1
  65   34   35 ar
  66   34   39 ar
  67   35   36 ar
  68   35   65 1
  69   36   37 ar
  70   36   66 1
  71   37   38 ar
  72   37   67 1
  73   38   39 ar
  74   38   68 1
  75   39   69 1

#	End of record

