#	Name: ASD03900017
#	Creating user name:	WinNT
#	Creation time:	15. 06. 2019 20:47

#	Modifying user name:	WinNT
#	Modification time:	15. 06. 2019 20:47

#	Program:	/corina/corina34_cracker 3.40 0067  02.08.2006

@<TRIPOS>MOLECULE
ASD03900017
  55   57    0    0    0
SMALL
NO_CHARGES


@<TRIPOS>ATOM
   1 C1            -0.0184     1.5028     0.0103 C.3     
   2 C2            -0.2028     0.0149     0.1631 C.ar    
   3 C3             1.4531     1.8278    -0.0029 C.ar    
   4 C4            -0.6446     1.9564    -1.2832 C.ar    
   5 C5            -1.4762    -0.5239     0.1829 C.ar    
   6 C6            -1.6488    -1.8870     0.3228 C.ar    
   7 C7            -0.5414    -2.7169     0.4436 C.ar    
   8 C8             0.7363    -2.1723     0.4233 C.ar    
   9 C9             0.9019    -0.8090     0.2774 C.ar    
  10 C10            2.2424     1.4103    -1.0588 C.ar    
  11 C11            3.5912     1.7064    -1.0741 C.ar    
  12 C12            4.1549     2.4246    -0.0271 C.ar    
  13 C13            3.3591     2.8426     1.0320 C.ar    
  14 C14            2.0099     2.5478     1.0382 C.ar    
  15 C15           -0.7365     3.3059    -1.5695 C.ar    
  16 C16           -1.3101     3.7243    -2.7545 C.ar    
  17 C17           -1.7943     2.7891    -3.6576 C.ar    
  18 C18           -1.7009     1.4355    -3.3680 C.ar    
  19 C19           -1.1213     1.0221    -2.1841 C.ar    
  20 N20           -0.7123    -4.0959     0.5857 N.pl3   
  21 N21            5.5188     2.7255    -0.0391 N.pl3   
  22 C22           -0.6892     2.2228     1.1818 C.3     
  23 O23           -2.3594     3.1981    -4.8239 O.3     
  24 C24            1.9406    -3.0688     0.5539 C.3     
  25 C25           -3.0369    -2.4733     0.3448 C.3     
  26 C26            4.4507     1.2506    -2.2250 C.3     
  27 C27            3.9662     3.6220     2.1700 C.3     
  28 H28           -2.3367     0.1219     0.0893 H       
  29 H29            1.8951    -0.3850     0.2612 H       
  30 H30            1.8036     0.8516    -1.8723 H       
  31 H31            1.3906     2.8727     1.8612 H       
  32 H32           -0.3597     4.0336    -0.8660 H       
  33 H33           -1.3819     4.7786    -2.9776 H       
  34 H34           -2.0771     0.7055    -4.0694 H       
  35 H35           -1.0484    -0.0315    -1.9581 H       
  36 H36           -1.6051    -4.4750     0.6001 H       
  37 H37            0.0617    -4.6744     0.6699 H       
  38 H38            6.0735     2.4329    -0.7791 H       
  39 H39            5.9112     3.2271     0.6925 H       
  40 H40           -0.2363     1.8947     2.1174 H       
  41 H41           -0.5558     3.2989     1.0713 H       
  42 H42           -1.7535     1.9877     1.1914 H       
  43 H43           -1.7326     3.2872    -5.5548 H       
  44 H44            2.2610    -3.3935    -0.4360 H       
  45 H45            2.7504    -2.5214     1.0365 H       
  46 H46            1.6816    -3.9398     1.1559 H       
  47 H47           -3.3419    -2.7232    -0.6713 H       
  48 H48           -3.0408    -3.3748     0.9575 H       
  49 H49           -3.7319    -1.7459     0.7643 H       
  50 H50            4.4595     2.0186    -2.9983 H       
  51 H51            5.4677     1.0778    -1.8728 H       
  52 H52            4.0465     0.3255    -2.6361 H       
  53 H53            3.9142     4.6880     1.9488 H       
  54 H54            3.4156     3.4139     3.0874 H       
  55 H55            5.0081     3.3277     2.2969 H       
@<TRIPOS>BOND
   1    1    2 1
   2    1    3 1
   3    1    4 1
   4    1   22 1
   5    2    5 ar
   6    2    9 ar
   7    3   10 ar
   8    3   14 ar
   9    4   15 ar
  10    4   19 ar
  11    5    6 ar
  12    5   28 1
  13    6    7 ar
  14    6   25 1
  15    7    8 ar
  16    7   20 1
  17    8    9 ar
  18    8   24 1
  19    9   29 1
  20   10   11 ar
  21   10   30 1
  22   11   12 ar
  23   11   26 1
  24   12   13 ar
  25   12   21 1
  26   13   14 ar
  27   13   27 1
  28   14   31 1
  29   15   16 ar
  30   15   32 1
  31   16   17 ar
  32   16   33 1
  33   17   18 ar
  34   17   23 1
  35   18   19 ar
  36   18   34 1
  37   19   35 1
  38   20   36 1
  39   20   37 1
  40   21   38 1
  41   21   39 1
  42   22   40 1
  43   22   41 1
  44   22   42 1
  45   23   43 1
  46   24   44 1
  47   24   45 1
  48   24   46 1
  49   25   47 1
  50   25   48 1
  51   25   49 1
  52   26   50 1
  53   26   51 1
  54   26   52 1
  55   27   53 1
  56   27   54 1
  57   27   55 1

#	End of record

