#	Name: ASD01885178
#	Creating user name:	WinNT
#	Creation time:	15. 06. 2019 19:49

#	Modifying user name:	WinNT
#	Modification time:	15. 06. 2019 19:49

#	Program:	/corina/corina34_cracker 3.40 0067  02.08.2006

@<TRIPOS>MOLECULE
ASD01885178
  48   50    0    0    0
SMALL
NO_CHARGES


@<TRIPOS>ATOM
   1 C1             0.7302     1.4200     1.0802 C.2     
   2 C2             0.7657     0.0146     1.0970 C.2     
   3 C3             1.2066    -0.6546    -0.0130 C.2     
   4 C4             1.6160     0.0754    -1.1497 C.2     
   5 C5             1.5737     1.4222    -1.1438 C.2     
   6 N6             1.1359     2.0991    -0.0428 N.pl3   
   7 C7             0.9859     3.4230     0.2488 C.2     
   8 N8             0.5211     3.5067     1.4676 N.2     
   9 N9             0.3609     2.3318     1.9670 N.2     
  10 C10            1.2993     4.5783    -0.6667 C.3     
  11 Cl11           0.2574    -0.8609     2.5072 Cl      
  12 N12            1.2514    -2.0467    -0.0204 N.pl3   
  13 C13            0.0200    -2.8422     0.0976 C.3     
  14 C14           -0.0070    -3.8691    -1.0396 C.3     
  15 N15            1.2390    -4.6469    -1.0223 N.3     
  16 C16            2.4055    -3.7902    -1.2740 C.3     
  17 C17            2.5307    -2.7601    -0.1526 C.3     
  18 C18            1.1844    -5.6999    -1.9382 C.ar    
  19 C19            0.9175    -5.4441    -3.2769 C.ar    
  20 C20            0.8638    -6.4886    -4.1823 C.ar    
  21 C21            1.0756    -7.7886    -3.7547 C.ar    
  22 C22            1.3415    -8.0460    -2.4203 C.ar    
  23 C23            1.4027    -7.0038    -1.5125 C.ar    
  24 F24            0.6042    -6.2404    -5.4847 F       
  25 F25            1.5473    -9.3152    -2.0056 F       
  26 C26            3.6697    -4.6506    -1.3230 C.3     
  27 C27            0.0573     4.9292    -1.4884 C.3     
  28 F28           -0.9860     5.2863    -0.6274 F       
  29 F29            0.3482     6.0017    -2.3384 F       
  30 F30           -0.3260     3.8207    -2.2509 F       
  31 H31            1.9650    -0.4477    -2.0277 H       
  32 H32            1.8896     1.9712    -2.0186 H       
  33 H33            1.5979     5.4420    -0.0727 H       
  34 H34            2.1121     4.3001    -1.3376 H       
  35 H35            0.0081    -3.3585     1.0575 H       
  36 H36           -0.8479    -2.1873     0.0202 H       
  37 H37           -0.8560    -4.5392    -0.9044 H       
  38 H38           -0.0998    -3.3519    -1.9946 H       
  39 H39            2.2792    -3.2741    -2.2257 H       
  40 H40            3.3236    -2.0518    -0.3929 H       
  41 H41            2.7597    -3.2660     0.7854 H       
  42 H42            0.7515    -4.4305    -3.6108 H       
  43 H43            1.0330    -8.6029    -4.4628 H       
  44 H44            1.6104    -7.2050    -0.4720 H       
  45 H45            3.5788    -5.3847    -2.1236 H       
  46 H46            4.5350    -4.0146    -1.5098 H       
  47 H47            3.7960    -5.1654    -0.3706 H       
  48 *48            9.5350    11.0017     7.5072 Du      
@<TRIPOS>BOND
   1    1    2 1
   2    1    6 1
   3    1    9 2
   4    2    3 2
   5    2   11 1
   6    3    4 1
   7    3   12 1
   8    4    5 2
   9    4   31 1
  10    5    6 1
  11    5   32 1
  12    6    7 1
  13    7    8 2
  14    7   10 1
  15    8    9 1
  16   10   27 1
  17   10   33 1
  18   10   34 1
  19   12   13 1
  20   12   17 1
  21   13   14 1
  22   13   35 1
  23   13   36 1
  24   14   15 1
  25   14   37 1
  26   14   38 1
  27   15   16 1
  28   15   18 1
  29   16   17 1
  30   16   26 1
  31   16   39 1
  32   17   40 1
  33   17   41 1
  34   18   19 ar
  35   18   23 ar
  36   19   20 ar
  37   19   42 1
  38   20   21 ar
  39   20   24 1
  40   21   22 ar
  41   21   43 1
  42   22   23 ar
  43   22   25 1
  44   23   44 1
  45   26   45 1
  46   26   46 1
  47   26   47 1
  48   27   28 1
  49   27   29 1
  50   27   30 1

#	End of record

