#	Name: ASD03570016
#	Creating user name:	WinNT
#	Creation time:	15. 06. 2019 20:43

#	Modifying user name:	WinNT
#	Modification time:	15. 06. 2019 20:43

#	Program:	/corina/corina34_cracker 3.40 0067  02.08.2006

@<TRIPOS>MOLECULE
ASD03570016
  28   29    0    0    0
SMALL
NO_CHARGES


@<TRIPOS>ATOM
   1 C1            -0.0168     1.3862     0.0097 C.ar    
   2 C2             0.0021    -0.0041     0.0020 C.ar    
   3 C3             1.1987    -0.6900    -0.0131 C.ar    
   4 C4             2.4008     0.0157    -0.0209 C.ar    
   5 C5             2.3768     1.4236    -0.0131 C.ar    
   6 C6             1.1472     2.0970     0.0024 C.ar    
   7 N7             3.7202    -0.3734    -0.0361 N.pl3   
   8 C8             4.5165     0.7559    -0.0379 C.2     
   9 C9             3.7231     1.8600    -0.0241 C.2     
  10 C10            4.1930     3.2919    -0.0211 C.3     
  11 C11            4.3383     3.7840    -1.4625 C.3     
  12 Br12          -1.6276    -0.9633     0.0131 Br      
  13 F13            1.2057    -2.0409    -0.0200 F       
  14 C14            4.8082     5.2159    -1.4595 C.2     
  15 O15            5.0065     5.7844    -0.4120 O.2     
  16 O16            5.0064     5.8596    -2.6206 O.3     
  17 C17            5.9851     0.7626    -0.0525 C.2     
  18 O18            6.5883     1.8182    -0.0523 O.2     
  19 O19            6.6646    -0.4022    -0.0660 O.3     
  20 H20           -0.9622     1.9082     0.0170 H       
  21 H21            1.1218     3.1766     0.0081 H       
  22 H22            4.0390    -1.2895    -0.0438 H       
  23 H23            3.4656     3.9119     0.5029 H       
  24 H24            5.1567     3.3570     0.4839 H       
  25 H25            5.0657     3.1640    -1.9865 H       
  26 H26            3.3745     3.7189    -1.9675 H       
  27 H27            5.3080     6.7769    -2.5680 H       
  28 H28            7.6299    -0.3472    -0.0752 H       
@<TRIPOS>BOND
   1    1    2 ar
   2    1    6 ar
   3    1   20 1
   4    2    3 ar
   5    2   12 1
   6    3    4 ar
   7    3   13 1
   8    4    5 ar
   9    4    7 1
  10    5    6 ar
  11    5    9 1
  12    6   21 1
  13    7    8 1
  14    7   22 1
  15    8    9 2
  16    8   17 1
  17    9   10 1
  18   10   11 1
  19   10   23 1
  20   10   24 1
  21   11   14 1
  22   11   25 1
  23   11   26 1
  24   14   15 2
  25   14   16 1
  26   16   27 1
  27   17   18 2
  28   17   19 1
  29   19   28 1

#	End of record

