#	Name: ASD01910462
#	Creating user name:	WinNT
#	Creation time:	15. 06. 2019 19:55

#	Modifying user name:	WinNT
#	Modification time:	15. 06. 2019 19:55

#	Program:	/corina/corina34_cracker 3.40 0067  02.08.2006

@<TRIPOS>MOLECULE
ASD01910462
  45   48    0    0    0
SMALL
NO_CHARGES


@<TRIPOS>ATOM
   1 C1             0.8046     1.9610    -1.0297 C.2     
   2 C2             0.8596     0.5261    -0.6805 C.2     
   3 N3             1.8973    -0.3156    -0.8988 N.2     
   4 C4             1.5112    -1.4774    -0.4348 C.2     
   5 O5             0.2735    -1.3197     0.0453 O.3     
   6 N6            -0.0845    -0.1696    -0.0961 N.2     
   7 C7             2.3123    -2.7538    -0.4407 C.3     
   8 C8             2.5083    -3.2406     0.9970 C.3     
   9 C9             3.3496    -4.5190     0.9943 C.3     
  10 C10            2.6118    -5.6094     0.2110 C.3     
  11 N11            2.2912    -5.0952    -1.1275 N.am    
  12 C12            1.5628    -3.8242    -1.2403 C.3     
  13 C13            2.6582    -5.7766    -2.2309 C.2     
  14 C14            3.4623    -7.0094    -2.1045 C.ar    
  15 O15            2.3275    -5.3767    -3.3303 O.2     
  16 C16            3.0623    -8.0201    -1.2277 C.ar    
  17 C17            3.8160    -9.1685    -1.1139 C.ar    
  18 C18            4.9695    -9.3212    -1.8680 C.ar    
  19 C19            5.3715    -8.3207    -2.7397 C.ar    
  20 C20            4.6220    -7.1707    -2.8655 C.ar    
  21 F21            5.7046   -10.4488    -1.7527 F       
  22 C22            1.7939     2.6786    -1.6330 C.2     
  23 C23            1.3267     3.9936    -1.7784 C.2     
  24 C24            0.0773     4.0448    -1.2657 C.2     
  25 N25           -0.2539     2.8060    -0.8097 N.pl3   
  26 C26           -1.5251     2.4382    -0.1812 C.3     
  27 H27            3.2845    -2.5711    -0.8986 H       
  28 H28            3.0196    -2.4706     1.5746 H       
  29 H29            1.5367    -3.4462     1.4463 H       
  30 H30            4.3119    -4.3202     0.5227 H       
  31 H31            3.5084    -4.8522     2.0199 H       
  32 H32            3.2488    -6.4894     0.1215 H       
  33 H33            1.6911    -5.8735     0.7312 H       
  34 H34            0.5566    -3.9428    -0.8384 H       
  35 H35            1.5076    -3.5263    -2.2873 H       
  36 H36            2.1641    -7.9019    -0.6396 H       
  37 H37            3.5077    -9.9506    -0.4359 H       
  38 H38            6.2709    -8.4445    -3.3245 H       
  39 H39            4.9358    -6.3921    -3.5450 H       
  40 H40            2.7589     2.3045    -1.9416 H       
  41 H41            1.8682     4.8168    -2.2205 H       
  42 H42           -0.5537     4.9205    -1.2278 H       
  43 H43           -2.2282     2.1116    -0.9475 H       
  44 H44           -1.3585     1.6276     0.5282 H       
  45 H45           -1.9344     3.3016     0.3432 H       
@<TRIPOS>BOND
   1    1    2 1
   2    1   22 2
   3    1   25 1
   4    2    3 1
   5    2    6 2
   6    3    4 2
   7    4    5 1
   8    4    7 1
   9    5    6 1
  10    7    8 1
  11    7   12 1
  12    7   27 1
  13    8    9 1
  14    8   28 1
  15    8   29 1
  16    9   10 1
  17    9   30 1
  18    9   31 1
  19   10   11 1
  20   10   32 1
  21   10   33 1
  22   11   12 1
  23   11   13 am
  24   12   34 1
  25   12   35 1
  26   13   14 1
  27   13   15 2
  28   14   16 ar
  29   14   20 ar
  30   16   17 ar
  31   16   36 1
  32   17   18 ar
  33   17   37 1
  34   18   19 ar
  35   18   21 1
  36   19   20 ar
  37   19   38 1
  38   20   39 1
  39   22   23 1
  40   22   40 1
  41   23   24 2
  42   23   41 1
  43   24   25 1
  44   24   42 1
  45   25   26 1
  46   26   43 1
  47   26   44 1
  48   26   45 1

#	End of record

