#	Name: ASD03330829
#	Creating user name:	WinNT
#	Creation time:	15. 06. 2019 20:38

#	Modifying user name:	WinNT
#	Modification time:	15. 06. 2019 20:38

#	Program:	/corina/corina34_cracker 3.40 0067  02.08.2006

@<TRIPOS>MOLECULE
ASD03330829
  63   65    0    0    0
SMALL
NO_CHARGES


@<TRIPOS>ATOM
   1 C1            -0.0282     2.0966     1.9878 C.2     
   2 N2            -0.1485     0.8086     2.4053 N.pl3   
   3 C3             1.2522     2.2584     1.5525 C.2     
   4 N4             1.8875     1.0743     1.6916 N.2     
   5 C5             1.0529     0.1968     2.1974 C.2     
   6 C6             1.3632    -1.2191     2.4926 C.ar    
   7 C7             1.8393     3.5023     1.0238 C.2     
   8 O8             1.1621     4.5096     0.9467 O.2     
   9 N9             3.1268     3.5238     0.6258 N.am    
  10 C10           -1.3555     0.2122     2.9842 C.3     
  11 C11           -2.5639     0.5839     2.1192 C.3     
  12 C12           -3.1388     1.9186     2.5825 C.3     
  13 N13           -2.0811     2.8088     3.0649 N.3     
  14 C14           -1.1243     3.1304     1.9956 C.3     
  15 C15            1.0062    -1.7728     3.7221 C.ar    
  16 C16            1.2984    -3.0942     3.9915 C.ar    
  17 C17            1.9441    -3.8703     3.0458 C.ar    
  18 C18            2.3018    -3.3281     1.8244 C.ar    
  19 C19            2.0098    -2.0088     1.5395 C.ar    
  20 C20            3.7104     4.7604     0.1002 C.3     
  21 C21            5.2036     4.7366     0.3022 C.2     
  22 C22            3.3997     4.8765    -1.3934 C.3     
  23 C23            1.8864     4.8036    -1.6067 C.3     
  24 C24            3.9253     6.2129    -1.9214 C.3     
  25 C25            4.0766     3.7291    -2.1458 C.3     
  26 O26            5.7608     3.6971     0.5848 O.2     
  27 N27            5.9199     5.8705     0.1689 N.am    
  28 C28            7.3792     5.8339     0.2921 C.3     
  29 C29           -2.6480     4.0316     3.6494 C.3     
  30 Cl30           2.4591    -1.3295     0.0064 Cl      
  31 C31            0.9135    -3.6934     5.3197 C.3     
  32 F32           -0.3717    -4.2387     5.2304 F       
  33 F33            1.8244    -4.6995     5.6589 F       
  34 F34            0.9306    -2.6981     6.3027 F       
  35 H35            3.6669     2.7204     0.6873 H       
  36 H36           -1.2481    -0.8721     3.0133 H       
  37 H37           -1.5006     0.5922     3.9954 H       
  38 H38           -2.2529     0.6652     1.0777 H       
  39 H39           -3.3262    -0.1900     2.2096 H       
  40 H40           -3.6543     2.3948     1.7485 H       
  41 H41           -3.8515     1.7408     3.3878 H       
  42 H42           -0.6945     4.1159     2.1754 H       
  43 H43           -1.6372     3.1251     1.0339 H       
  44 H44            0.5023    -1.1684     4.4618 H       
  45 H45            2.1704    -4.9039     3.2620 H       
  46 H46            2.8061    -3.9392     1.0904 H       
  47 H47            3.2861     5.6151     0.6271 H       
  48 H48            1.4041     5.6210    -1.0706 H       
  49 H49            1.6650     4.8863    -2.6708 H       
  50 H50            1.5119     3.8515    -1.2306 H       
  51 H51            4.9744     6.3245    -1.6472 H       
  52 H52            3.8289     6.2380    -3.0068 H       
  53 H53            3.3473     7.0281    -1.4863 H       
  54 H54            3.7021     2.7770    -1.7697 H       
  55 H55            3.8552     3.8118    -3.2099 H       
  56 H56            5.1547     3.7810    -1.9939 H       
  57 H57            5.4691     6.7109    -0.0086 H       
  58 H58            7.7915     5.1710    -0.4687 H       
  59 H59            7.7807     6.8380     0.1553 H       
  60 H60            7.6512     5.4654     1.2811 H       
  61 H61           -3.2928     3.7684     4.4879 H       
  62 H62           -1.8408     4.6749     3.9997 H       
  63 H63           -3.2311     4.5587     2.8942 H       
@<TRIPOS>BOND
   1    1    2 1
   2    1    3 2
   3    1   14 1
   4    2   10 1
   5    2    5 1
   6    3    4 1
   7    3    7 1
   8    4    5 2
   9    5    6 1
  10    6   15 ar
  11    6   19 ar
  12    7    8 2
  13    7    9 am
  14    9   20 1
  15    9   35 1
  16   10   11 1
  17   10   36 1
  18   10   37 1
  19   11   12 1
  20   11   38 1
  21   11   39 1
  22   12   13 1
  23   12   40 1
  24   12   41 1
  25   13   14 1
  26   13   29 1
  27   14   42 1
  28   14   43 1
  29   15   16 ar
  30   15   44 1
  31   16   17 ar
  32   16   31 1
  33   17   18 ar
  34   17   45 1
  35   18   19 ar
  36   18   46 1
  37   19   30 1
  38   20   21 1
  39   20   22 1
  40   20   47 1
  41   21   26 2
  42   21   27 am
  43   22   23 1
  44   22   24 1
  45   22   25 1
  46   23   48 1
  47   23   49 1
  48   23   50 1
  49   24   51 1
  50   24   52 1
  51   24   53 1
  52   25   54 1
  53   25   55 1
  54   25   56 1
  55   27   28 1
  56   27   57 1
  57   28   58 1
  58   28   59 1
  59   28   60 1
  60   29   61 1
  61   29   62 1
  62   29   63 1
  63   31   32 1
  64   31   33 1
  65   31   34 1

#	End of record

