#	Name: ASD03082062
#	Creating user name:	WinNT
#	Creation time:	15. 06. 2019 20:27

#	Modifying user name:	WinNT
#	Modification time:	15. 06. 2019 20:27

#	Program:	/corina/corina34_cracker 3.40 0067  02.08.2006

@<TRIPOS>MOLECULE
ASD03082062
  81   85    0    0    0
SMALL
NO_CHARGES


@<TRIPOS>ATOM
   1 C1            -0.0187     1.5261     0.0104 C.3     
   2 C2             0.0021    -0.0041     0.0020 C.3     
   3 N3            -1.3752    -0.5135    -0.0088 N.3     
   4 C4            -2.0910    -0.0830    -1.2166 C.3     
   5 C5            -2.1743     1.4448    -1.2445 C.3     
   6 C6            -0.7588     2.0285    -1.2323 C.3     
   7 C7            -1.3964    -1.9765     0.1224 C.3     
   8 C8            -2.8333    -2.4467     0.3573 C.3     
   9 C9            -2.9010     1.8936    -2.5139 C.3     
  10 C10           -2.8554    -3.9704     0.4940 C.3     
  11 C11           -4.2706    -4.4335     0.7254 C.ar    
  12 O12           -4.2780     1.4350    -2.4712 O.3     
  13 C13           -5.0604     1.7494    -3.5222 C.2     
  14 C14           -6.4698     1.3170    -3.5475 C.ar    
  15 O15           -4.6045     2.3893    -4.4490 O.2     
  16 C16           -6.9981     0.5812    -2.4843 C.ar    
  17 C17           -8.3167     0.1803    -2.5139 C.ar    
  18 C18           -9.1216     0.5035    -3.5937 C.ar    
  19 C19           -8.6127     1.2301    -4.6522 C.ar    
  20 C20           -7.2897     1.6470    -4.6370 C.ar    
  21 N21           -6.7733     2.3817    -5.7064 N.am    
  22 C22           -6.8121     3.7191    -5.7524 C.2     
  23 C23           -6.1716     4.1918    -7.0392 C.3     
  24 C24           -5.7514     2.8817    -7.7363 C.3     
  25 C25           -6.1936     1.8068    -6.7675 C.2     
  26 O26           -7.2857     4.4375    -4.8986 O.2     
  27 O27           -6.0520     0.6139    -6.9297 O.2     
  28 C28            1.4164     2.0565    -0.0004 C.3     
  29 C29            1.3948     3.5863     0.0080 C.3     
  30 C30            2.8299     4.1167    -0.0029 C.3     
  31 C31            3.5702     3.6103     1.2367 C.3     
  32 C32            3.5918     2.0805     1.2283 C.3     
  33 C33            2.1567     1.5501     1.2391 C.3     
  34 C34           -6.4696     2.7318    -9.0789 C.3     
  35 C35           -5.0790    -4.7496    -0.3505 C.ar    
  36 C36           -6.3773    -5.1744    -0.1383 C.ar    
  37 C37           -6.8670    -5.2835     1.1498 C.ar    
  38 C38           -6.0583    -4.9682     2.2257 C.ar    
  39 C39           -4.7587    -4.5476     2.0136 C.ar    
  40 H40           -0.5300     1.8782     0.9064 H       
  41 H41            0.5262    -0.3553    -0.8868 H       
  42 H42            0.5159    -0.3652     0.8929 H       
  43 H43           -1.5571    -0.4339    -2.0997 H       
  44 H44           -3.0975    -0.5015    -1.2107 H       
  45 H45           -2.7201     1.7956    -0.3687 H       
  46 H46           -0.8137     3.1169    -1.2084 H       
  47 H47           -0.2254     1.7094    -2.1277 H       
  48 H48           -1.0108    -2.4288    -0.7912 H       
  49 H49           -0.7740    -2.2746     0.9662 H       
  50 H50           -3.2188    -1.9943     1.2710 H       
  51 H51           -3.4556    -2.1485    -0.4864 H       
  52 H52           -2.8822     2.9816    -2.5779 H       
  53 H53           -2.4037     1.4697    -3.3864 H       
  54 H54           -2.4698    -4.4228    -0.4197 H       
  55 H55           -2.2330    -4.2685     1.3377 H       
  56 H56           -6.3743     0.3264    -1.6403 H       
  57 H57           -8.7240    -0.3888    -1.6914 H       
  58 H58          -10.1536     0.1852    -3.6082 H       
  59 H59           -9.2465     1.4776    -5.4909 H       
  60 H60           -6.8923     4.7367    -7.6489 H       
  61 H61           -5.2996     4.8111    -6.8288 H       
  62 H62           -4.6704     2.8494    -7.8727 H       
  63 H63            1.9268     1.7053    -0.8972 H       
  64 H64            0.8674     3.9471    -0.8751 H       
  65 H65            0.8844     3.9376     0.9048 H       
  66 H66            3.3403     3.7655    -0.8996 H       
  67 H67            2.8145     5.2066     0.0031 H       
  68 H68            4.5925     3.9882     1.2289 H       
  69 H69            3.0598     3.9615     2.1335 H       
  70 H70            4.1022     1.7293     0.3315 H       
  71 H71            4.1192     1.7197     2.1113 H       
  72 H72            1.6463     1.9013     2.1359 H       
  73 H73            2.1721     0.4602     1.2331 H       
  74 H74           -6.2139     3.5727    -9.7236 H       
  75 H75           -6.1597     1.8015    -9.5549 H       
  76 H76           -7.5470     2.7146    -8.9146 H       
  77 H77           -4.6964    -4.6644    -1.3569 H       
  78 H78           -7.0091    -5.4207    -0.9789 H       
  79 H79           -7.8815    -5.6147     1.3156 H       
  80 H80           -6.4410    -5.0531     3.2320 H       
  81 H81           -4.1269    -4.3013     2.8542 H       
@<TRIPOS>BOND
   1    1    2 1
   2    1   28 1
   3    1    6 1
   4    1   40 1
   5    2    3 1
   6    2   41 1
   7    2   42 1
   8    3    4 1
   9    3    7 1
  10    4    5 1
  11    4   43 1
  12    4   44 1
  13    5    6 1
  14    5    9 1
  15    5   45 1
  16    6   46 1
  17    6   47 1
  18    7    8 1
  19    7   48 1
  20    7   49 1
  21    8   10 1
  22    8   50 1
  23    8   51 1
  24    9   12 1
  25    9   52 1
  26    9   53 1
  27   10   11 1
  28   10   54 1
  29   10   55 1
  30   11   35 ar
  31   11   39 ar
  32   12   13 1
  33   13   14 1
  34   13   15 2
  35   14   16 ar
  36   14   20 ar
  37   16   17 ar
  38   16   56 1
  39   17   18 ar
  40   17   57 1
  41   18   19 ar
  42   18   58 1
  43   19   20 ar
  44   19   59 1
  45   20   21 1
  46   21   22 am
  47   21   25 am
  48   22   23 1
  49   22   26 2
  50   23   24 1
  51   23   60 1
  52   23   61 1
  53   24   25 1
  54   24   34 1
  55   24   62 1
  56   25   27 2
  57   28   29 1
  58   28   33 1
  59   28   63 1
  60   29   30 1
  61   29   64 1
  62   29   65 1
  63   30   31 1
  64   30   66 1
  65   30   67 1
  66   31   32 1
  67   31   68 1
  68   31   69 1
  69   32   33 1
  70   32   70 1
  71   32   71 1
  72   33   72 1
  73   33   73 1
  74   34   74 1
  75   34   75 1
  76   34   76 1
  77   35   36 ar
  78   35   77 1
  79   36   37 ar
  80   36   78 1
  81   37   38 ar
  82   37   79 1
  83   38   39 ar
  84   38   80 1
  85   39   81 1

#	End of record

