#	Name: ASD01940620
#	Creating user name:	WinNT
#	Creation time:	15. 06. 2019 20:12

#	Modifying user name:	WinNT
#	Modification time:	15. 06. 2019 20:12

#	Program:	/corina/corina34_cracker 3.40 0067  02.08.2006

@<TRIPOS>MOLECULE
ASD01940620
  46   48    0    0    0
SMALL
NO_CHARGES


@<TRIPOS>ATOM
   1 C1            -0.7492     1.4443     0.5008 C.ar    
   2 C2            -0.8970     0.0491     0.5354 C.ar    
   3 C3             0.1722    -0.7470     0.9089 C.ar    
   4 C4             1.3863    -0.1716     1.2483 C.ar    
   5 C5             1.5443     1.2036     1.2181 C.ar    
   6 C6             0.4860     2.0192     0.8468 C.ar    
   7 N7             0.6459     3.3990     0.8168 N.pl3   
   8 C8             1.6410     4.0048     1.5914 C.ar    
   9 C9             2.1437     3.3550     2.7101 C.ar    
  10 C10            3.1266     3.9557     3.4734 C.ar    
  11 C11            3.6102     5.2034     3.1245 C.ar    
  12 C12            3.1122     5.8552     2.0101 C.ar    
  13 C13            2.1330     5.2575     1.2388 C.ar    
  14 F14            1.6505     5.8913     0.1475 F       
  15 I15            5.0999     6.1091     4.2863 I       
  16 F16            2.4230    -0.9580     1.6118 F       
  17 C17           -1.8767     2.2983     0.0997 C.2     
  18 O18           -2.6564     2.7097     0.9380 O.2     
  19 N19           -2.0464     2.6255    -1.1967 N.am    
  20 O20           -2.0841    -0.5177     0.2042 O.3     
  21 C21           -2.1524    -1.8742     0.1571 C.ar    
  22 C22           -2.3782    -2.5983     1.3180 C.ar    
  23 C23           -2.4478    -3.9846     1.2657 C.ar    
  24 C24           -2.2911    -4.6405     0.0514 C.ar    
  25 C25           -2.0658    -3.9150    -1.1029 C.ar    
  26 C26           -2.0018    -2.5356    -1.0541 C.ar    
  27 N27           -2.6748    -4.7184     2.4332 N.am    
  28 S28           -3.5490    -6.1235     2.3713 S.o2    
  29 N29           -2.6258    -7.2402     1.5695 N.am    
  30 O30           -3.6632    -6.5844     3.7106 O.2     
  31 O31           -4.6721    -5.8610     1.5412 O.2     
  32 Cl32          -2.5729    -1.7740     2.8334 Cl      
  33 H33            0.0596    -1.8208     0.9362 H       
  34 H34            2.4945     1.6424     1.4844 H       
  35 H35            0.0675     3.9422     0.2589 H       
  36 H36            1.7668     2.3807     2.9841 H       
  37 H37            3.5174     3.4501     4.3441 H       
  38 H38            3.4917     6.8297     1.7404 H       
  39 H39           -1.4246     2.2975    -1.8650 H       
  40 H40           -2.7902     3.1890    -1.4613 H       
  41 H41           -2.3450    -5.7184     0.0094 H       
  42 H42           -1.9435    -4.4271    -2.0459 H       
  43 H43           -1.8300    -1.9715    -1.9588 H       
  44 H44           -2.3203    -4.4047     3.2798 H       
  45 H45           -1.7460    -6.9967     1.2416 H       
  46 H46           -2.9648    -8.1380     1.4279 H       
@<TRIPOS>BOND
   1    1    2 ar
   2    1    6 ar
   3    1   17 1
   4    2    3 ar
   5    2   20 1
   6    3    4 ar
   7    3   33 1
   8    4    5 ar
   9    4   16 1
  10    5    6 ar
  11    5   34 1
  12    6    7 1
  13    7    8 1
  14    7   35 1
  15    8    9 ar
  16    8   13 ar
  17    9   10 ar
  18    9   36 1
  19   10   11 ar
  20   10   37 1
  21   11   12 ar
  22   11   15 1
  23   12   13 ar
  24   12   38 1
  25   13   14 1
  26   17   18 2
  27   17   19 am
  28   19   39 1
  29   19   40 1
  30   20   21 1
  31   21   22 ar
  32   21   26 ar
  33   22   23 ar
  34   22   32 1
  35   23   27 1
  36   23   24 ar
  37   24   25 ar
  38   24   41 1
  39   25   26 ar
  40   25   42 1
  41   26   43 1
  42   27   28 am
  43   27   44 1
  44   28   29 am
  45   28   30 2
  46   28   31 2
  47   29   45 1
  48   29   46 1

#	End of record

