#	Name: ASD02560366
#	Creating user name:	WinNT
#	Creation time:	15. 06. 2019 20:25

#	Modifying user name:	WinNT
#	Modification time:	15. 06. 2019 20:25

#	Program:	/corina/corina34_cracker 3.40 0067  02.08.2006

@<TRIPOS>MOLECULE
ASD02560366
  55   57    0    0    0
SMALL
NO_CHARGES


@<TRIPOS>ATOM
   1 C1             0.9595     1.9397     3.4417 C.2     
   2 C2             1.1302     0.5792     3.1290 C.2     
   3 C3             2.1480     0.1845     2.3382 C.2     
   4 N4             3.0294     1.0996     1.8281 N.pl3   
   5 C5             2.8874     2.4378     2.1164 C.2     
   6 C6             1.8255     2.8615     2.9432 C.2     
   7 C7             4.1241     0.9717     1.0186 C.2     
   8 C8             4.6302     2.2402     0.8285 C.2     
   9 N9             3.8553     3.1044     1.5088 N.2     
  10 C10            5.8198     2.5903     0.0167 C.ar    
  11 N11            4.6321    -0.2151     0.4875 N.3     
  12 C12            3.7509    -1.3493     0.7956 C.3     
  13 C13            3.8082    -1.6471     2.2952 C.3     
  14 C14            5.8060     3.7288    -0.7885 C.ar    
  15 C15            6.9576     1.7851     0.0608 C.ar    
  16 C16            8.0630     2.1142    -0.6956 C.ar    
  17 C17            8.0440     3.2455    -1.4997 C.ar    
  18 C18            6.9149     4.0518    -1.5423 C.ar    
  19 O19            9.1355     3.5673    -2.2431 O.3     
  20 C20            9.0479     4.7448    -3.0481 C.3     
  21 C21            2.3146    -1.0016     0.3992 C.3     
  22 C22            4.2120    -2.5806     0.0132 C.3     
  23 C23            5.5065    -3.1189     0.6259 C.3     
  24 C24            5.1792    -3.9181     1.8888 C.3     
  25 C25            6.2099    -4.0272    -0.3846 C.3     
  26 C26            6.4250    -1.9495     0.9862 C.3     
  27 H27            0.1403     2.2518     4.0725 H       
  28 H28            0.4424    -0.1533     3.5250 H       
  29 H29            2.2694    -0.8630     2.1051 H       
  30 H30            1.7015     3.9084     3.1776 H       
  31 H31            4.7801    -0.1319    -0.5071 H       
  32 H32            3.9212    -0.7138     2.8469 H       
  33 H33            2.8869    -2.1417     2.6029 H       
  34 H34            4.6573    -2.2978     2.5043 H       
  35 H35            4.9278     4.3566    -0.8221 H       
  36 H36            6.9733     0.9051     0.6867 H       
  37 H37            8.9445     1.4911    -0.6620 H       
  38 H38            6.9034     4.9312    -2.1692 H       
  39 H39            8.2296     4.6380    -3.7602 H       
  40 H40            8.8634     5.6086    -2.4095 H       
  41 H41            9.9839     4.8858    -3.5887 H       
  42 H42            2.1701    -1.2087    -0.6611 H       
  43 H43            1.6201    -1.6039     0.9849 H       
  44 H44            2.1304     0.0554     0.5914 H       
  45 H45            3.4411    -3.3498     0.0588 H       
  46 H46            4.3892    -2.3051    -1.0264 H       
  47 H47            5.2179    -4.9841     1.6644 H       
  48 H48            5.9067    -3.6837     2.6659 H       
  49 H49            4.1797    -3.6560     2.2358 H       
  50 H50            6.4431    -3.4578    -1.2843 H       
  51 H51            7.1321    -4.4107     0.0520 H       
  52 H52            5.5555    -4.8603    -0.6412 H       
  53 H53            5.8930    -1.2573     1.6389 H       
  54 H54            7.3090    -2.3268     1.5002 H       
  55 H55            6.7273    -1.4312     0.0762 H       
@<TRIPOS>BOND
   1    1    2 1
   2    1    6 2
   3    1   27 1
   4    2    3 2
   5    2   28 1
   6    3    4 1
   7    3   29 1
   8    4    5 1
   9    4    7 1
  10    5    6 1
  11    5    9 2
  12    6   30 1
  13    7    8 2
  14    7   11 1
  15    8    9 1
  16    8   10 1
  17   10   14 ar
  18   10   15 ar
  19   11   12 1
  20   11   31 1
  21   12   13 1
  22   12   22 1
  23   12   21 1
  24   13   32 1
  25   13   33 1
  26   13   34 1
  27   14   18 ar
  28   14   35 1
  29   15   16 ar
  30   15   36 1
  31   16   17 ar
  32   16   37 1
  33   17   18 ar
  34   17   19 1
  35   18   38 1
  36   19   20 1
  37   20   39 1
  38   20   40 1
  39   20   41 1
  40   21   42 1
  41   21   43 1
  42   21   44 1
  43   22   23 1
  44   22   45 1
  45   22   46 1
  46   23   24 1
  47   23   25 1
  48   23   26 1
  49   24   47 1
  50   24   48 1
  51   24   49 1
  52   25   50 1
  53   25   51 1
  54   25   52 1
  55   26   53 1
  56   26   54 1
  57   26   55 1

#	End of record

