#	Name: ASD00431055
#	Creating user name:	WinNT
#	Creation time:	15. 06. 2019 18:35

#	Modifying user name:	WinNT
#	Modification time:	15. 06. 2019 18:35

#	Program:	/corina/corina34_cracker 3.40 0067  02.08.2006

@<TRIPOS>MOLECULE
ASD00431055
  54   55    0    0    0
SMALL
NO_CHARGES


@<TRIPOS>ATOM
   1 C1             0.3979     0.1668    -1.7774 C.ar    
   2 C2            -0.3706     0.3321    -0.6394 C.ar    
   3 C3            -0.1811     1.4397     0.1682 C.ar    
   4 C4             0.7754     2.3807    -0.1624 C.ar    
   5 C5             1.5435     2.2163    -1.2999 C.ar    
   6 C6             1.3557     1.1090    -2.1076 C.ar    
   7 Cl7            2.3207     0.9024    -3.5358 Cl      
   8 Cl8           -1.5729    -0.8494    -0.2246 Cl      
   9 C9             2.5857     3.2435    -1.6603 C.3     
  10 N10            3.9179     2.7146    -1.3572 N.pl3   
  11 C11            5.0303     3.4313    -1.6953 C.2     
  12 C12            5.8700     3.7852    -0.7169 C.2     
  13 C13            5.2381     3.7679    -3.1424 C.3     
  14 C14            6.2190     4.9344    -3.2834 C.3     
  15 N15            7.3682     4.6745    -2.4000 N.am    
  16 C16            7.1125     4.5980    -0.9556 C.3     
  17 C17            5.5763     3.3769     0.6024 C.2     
  18 O18            4.5259     2.8119     0.8449 O.2     
  19 C19            8.6096     4.5085    -2.8978 C.2     
  20 O20            8.7970     4.5723    -4.0967 O.2     
  21 O21            9.6421     4.2720    -2.0667 O.3     
  22 C22           10.9508     4.1034    -2.6726 C.3     
  23 O23            6.4602     3.6132     1.5946 O.3     
  24 C24            7.2151     3.5257     3.8887 C.3     
  25 C25            6.0977     3.1730     2.9049 C.3     
  26 C26           11.3242     5.3725    -3.4413 C.3     
  27 C27           11.9896     3.8452    -1.5793 C.3     
  28 C28           10.9178     2.9150    -3.6356 C.3     
  29 H29            0.2535    -0.6998    -2.4056 H       
  30 H30           -0.7811     1.5688     1.0569 H       
  31 H31            0.9227     3.2452     0.4681 H       
  32 H32            2.5186     3.4714    -2.7240 H       
  33 H33            2.4154     4.1520    -1.0825 H       
  34 H34            4.0099     1.8554    -0.9165 H       
  35 H35            5.6371     2.8965    -3.6615 H       
  36 H36            4.2829     4.0441    -3.5890 H       
  37 H37            6.5581     5.0074    -4.3168 H       
  38 H38            5.7310     5.8635    -2.9889 H       
  39 H39            6.9700     5.6026    -0.5572 H       
  40 H40            7.9605     4.1254    -0.4600 H       
  41 H41            8.1379     3.0332     3.5823 H       
  42 H42            7.3648     4.6054     3.8966 H       
  43 H43            6.9386     3.1899     4.8881 H       
  44 H44            5.1749     3.6655     3.2113 H       
  45 H45            5.9480     2.0933     2.8969 H       
  46 H46           11.3478     6.2192    -2.7553 H       
  47 H47           12.3067     5.2460    -3.8962 H       
  48 H48           10.5842     5.5565    -4.2202 H       
  49 H49           11.7236     2.9411    -1.0317 H       
  50 H50           12.9720     3.7187    -2.0342 H       
  51 H51           12.0132     4.6919    -0.8933 H       
  52 H52           10.1777     3.0990    -4.4145 H       
  53 H53           11.9002     2.7884    -4.0905 H       
  54 H54           10.6518     2.0109    -3.0880 H       
@<TRIPOS>BOND
   1    1    2 ar
   2    1    6 ar
   3    1   29 1
   4    2    3 ar
   5    2    8 1
   6    3    4 ar
   7    3   30 1
   8    4    5 ar
   9    4   31 1
  10    5    6 ar
  11    5    9 1
  12    6    7 1
  13    9   10 1
  14    9   32 1
  15    9   33 1
  16   10   11 1
  17   10   34 1
  18   11   12 2
  19   11   13 1
  20   12   17 1
  21   12   16 1
  22   13   14 1
  23   13   35 1
  24   13   36 1
  25   14   15 1
  26   14   37 1
  27   14   38 1
  28   15   16 1
  29   15   19 am
  30   16   39 1
  31   16   40 1
  32   17   18 2
  33   17   23 1
  34   19   20 2
  35   19   21 1
  36   21   22 1
  37   22   26 1
  38   22   27 1
  39   22   28 1
  40   23   25 1
  41   24   25 1
  42   24   41 1
  43   24   42 1
  44   24   43 1
  45   25   44 1
  46   25   45 1
  47   26   46 1
  48   26   47 1
  49   26   48 1
  50   27   49 1
  51   27   50 1
  52   27   51 1
  53   28   52 1
  54   28   53 1
  55   28   54 1

#	End of record

