#	Name: ASD01150051
#	Creating user name:	WinNT
#	Creation time:	15. 06. 2019 19:03

#	Modifying user name:	WinNT
#	Modification time:	15. 06. 2019 19:03

#	Program:	/corina/corina34_cracker 3.40 0067  02.08.2006

@<TRIPOS>MOLECULE
ASD01150051
  63   65    0    0    0
SMALL
NO_CHARGES


@<TRIPOS>ATOM
   1 C1            -0.0246     1.3791     0.1670 C.2     
   2 C2            -0.0022    -0.0079     0.0866 C.2     
   3 N3            -1.2586    -0.4266    -0.0894 N.2     
   4 C4            -2.0770     0.6039    -0.1261 C.2     
   5 N5            -1.3645     1.7508     0.0339 N.pl3   
   6 N6            -3.4405     0.5315    -0.2950 N.3     
   7 C7            -3.7790    -0.0040    -1.6204 C.3     
   8 C8            -4.0611    -0.2678     0.7699 C.3     
   9 C9            -1.8750     3.0552     0.0531 C.ar    
  10 C10           -2.6807     3.4715     1.1046 C.ar    
  11 C11           -3.1821     4.7583     1.1210 C.ar    
  12 C12           -2.8829     5.6316     0.0914 C.ar    
  13 C13           -2.0811     5.2199    -0.9573 C.ar    
  14 C14           -1.5716     3.9363    -0.9763 C.ar    
  15 N15            1.1254    -0.8152     0.1738 N.am    
  16 C16            1.0045    -2.1541     0.0791 C.2     
  17 C17            2.2275    -3.0296     0.1737 C.3     
  18 S18           -0.4365    -2.8138    -0.1335 S.2     
  19 C19            1.0790     2.2359     0.3513 C.2     
  20 O20            0.8940     3.5724     0.4095 O.3     
  21 O21            2.1996     1.7711     0.4581 O.2     
  22 C22            2.0572     4.3808     0.5981 C.3     
  23 C23            3.0313     4.1506    -0.5590 C.3     
  24 C24            1.6522     5.8556     0.6382 C.3     
  25 C25            2.7334     4.0015     1.9172 C.3     
  26 O26            1.8433    -4.4001     0.0455 O.3     
  27 C27            2.9348    -5.3192     0.1216 C.3     
  28 C28            2.4171    -6.7270    -0.0248 C.ar    
  29 C29            2.3223    -7.3016    -1.2785 C.ar    
  30 C30            1.8475    -8.5928    -1.4129 C.ar    
  31 C31            1.4679    -9.3096    -0.2935 C.ar    
  32 C32            1.5635    -8.7354     0.9602 C.ar    
  33 C33            2.0425    -7.4456     1.0950 C.ar    
  34 H34           -3.3601    -1.0047    -1.7258 H       
  35 H35           -4.8628    -0.0506    -1.7274 H       
  36 H36           -3.3654     0.6461    -2.3913 H       
  37 H37           -3.7796     0.1395     1.7409 H       
  38 H38           -5.1454    -0.2360     0.6631 H       
  39 H39           -3.7189    -1.3000     0.6958 H       
  40 H40           -2.9153     2.7897     1.9086 H       
  41 H41           -3.8088     5.0827     1.9385 H       
  42 H42           -3.2764     6.6373     0.1063 H       
  43 H43           -1.8495     5.9042    -1.7601 H       
  44 H44           -0.9456     3.6153    -1.7957 H       
  45 H45            1.9995    -0.4150     0.3028 H       
  46 H46            2.9223    -2.7708    -0.6253 H       
  47 H47            2.7103    -2.8764     1.1389 H       
  48 H48            2.5495     4.4208    -1.4987 H       
  49 H49            3.9185     4.7673    -0.4152 H       
  50 H50            3.3198     3.0999    -0.5876 H       
  51 H51            0.9582     6.0196     1.4626 H       
  52 H52            2.5394     6.4723     0.7821 H       
  53 H53            1.1704     6.1258    -0.3015 H       
  54 H54            3.0219     2.9508     1.8886 H       
  55 H55            3.6206     4.6182     2.0610 H       
  56 H56            2.0394     4.1655     2.7415 H       
  57 H57            3.6442    -5.1079    -0.6784 H       
  58 H58            3.4322    -5.2135     1.0857 H       
  59 H59            2.6189    -6.7415    -2.1531 H       
  60 H60            1.7727    -9.0415    -2.3924 H       
  61 H61            1.0962   -10.3182    -0.3986 H       
  62 H62            1.2666    -9.2953     1.8347 H       
  63 H63            2.1172    -6.9969     2.0745 H       
@<TRIPOS>BOND
   1    1    2 2
   2    1   19 1
   3    1    5 1
   4    2    3 1
   5    2   15 1
   6    3    4 2
   7    4    5 1
   8    4    6 1
   9    5    9 1
  10    6    7 1
  11    6    8 1
  12    7   34 1
  13    7   35 1
  14    7   36 1
  15    8   37 1
  16    8   38 1
  17    8   39 1
  18    9   10 ar
  19    9   14 ar
  20   10   11 ar
  21   10   40 1
  22   11   12 ar
  23   11   41 1
  24   12   13 ar
  25   12   42 1
  26   13   14 ar
  27   13   43 1
  28   14   44 1
  29   15   16 am
  30   15   45 1
  31   16   17 1
  32   16   18 2
  33   17   26 1
  34   17   46 1
  35   17   47 1
  36   19   20 1
  37   19   21 2
  38   20   22 1
  39   22   23 1
  40   22   24 1
  41   22   25 1
  42   23   48 1
  43   23   49 1
  44   23   50 1
  45   24   51 1
  46   24   52 1
  47   24   53 1
  48   25   54 1
  49   25   55 1
  50   25   56 1
  51   26   27 1
  52   27   28 1
  53   27   57 1
  54   27   58 1
  55   28   29 ar
  56   28   33 ar
  57   29   30 ar
  58   29   59 1
  59   30   31 ar
  60   30   60 1
  61   31   32 ar
  62   31   61 1
  63   32   33 ar
  64   32   62 1
  65   33   63 1

#	End of record

