#	Name: ASD01884787
#	Creating user name:	WinNT
#	Creation time:	15. 06. 2019 19:48

#	Modifying user name:	WinNT
#	Modification time:	15. 06. 2019 19:48

#	Program:	/corina/corina34_cracker 3.40 0067  02.08.2006

@<TRIPOS>MOLECULE
ASD01884787
  46   49    0    0    0
SMALL
NO_CHARGES


@<TRIPOS>ATOM
   1 C1            -0.4382     1.2686     0.2477 C.3     
   2 C2            -0.1565    -0.2339     0.1841 C.3     
   3 H3            -1.0900    -0.7845     0.2997 H       
   4 C4             0.4757    -0.5781    -1.1644 C.3     
   5 N5             1.0586    -1.9152    -1.1851 N.am    
   6 C6             1.7489    -2.4082    -0.1288 C.2     
   7 O7             2.4046    -3.4303    -0.2111 O.2     
   8 C8             1.6633    -1.6431     1.1185 C.2     
   9 C9             2.3593    -1.7471     2.3066 C.2     
  10 C10            1.8684    -0.7333     3.1594 C.2     
  11 N11            0.9341    -0.0657     2.5271 N.2     
  12 N12            0.7664    -0.6045     1.2590 N.pl3   
  13 C13            3.3827    -2.7001     2.6151 C.1     
  14 C14            4.2217    -3.4813     2.8681 C.1     
  15 C15            5.2451    -4.4343     3.1767 C.ar    
  16 C16            5.6404    -5.3883     2.2257 C.ar    
  17 C17            6.6304    -6.2854     2.5698 C.ar    
  18 C18            7.2011    -6.2163     3.8385 C.ar    
  19 N19            8.1981    -7.1161     4.1900 N.pl3   
  20 N20            6.8064    -5.3038     4.7147 N.ar    
  21 C21            5.8691    -4.4248     4.4263 C.ar    
  22 C22            0.9004    -2.7090    -2.3251 C.ar    
  23 C23            0.1208    -3.8572    -2.2705 C.ar    
  24 C24           -0.0343    -4.6404    -3.3978 C.ar    
  25 C25            0.5857    -4.2833    -4.5806 C.ar    
  26 C26            1.3646    -3.1391    -4.6394 C.ar    
  27 F27            1.9697    -2.7929    -5.7966 F       
  28 C28            1.5179    -2.3479    -3.5155 C.ar    
  29 C29            0.4144    -5.1405    -5.8081 C.3     
  30 F30           -0.4076    -6.2311    -5.5044 F       
  31 F31           -0.1730    -4.3834    -6.8274 F       
  32 F32            1.6649    -5.6029    -6.2322 F       
  33 H33            0.4958     1.8186     0.1320 H       
  34 H34           -1.1237     1.5440    -0.5537 H       
  35 H35           -0.8873     1.5136     1.2102 H       
  36 H36           -0.2892    -0.5153    -1.9384 H       
  37 H37            1.2566     0.1501    -1.3836 H       
  38 H38            2.2070    -0.5402     4.1666 H       
  39 H39            5.1805    -5.4196     1.2491 H       
  40 H40            6.9590    -7.0332     1.8633 H       
  41 H41            8.4925    -7.7867     3.5540 H       
  42 H42            8.6003    -7.0742     5.0717 H       
  43 H43            5.5768    -3.6928     5.1647 H       
  44 H44           -0.3637    -4.1379    -1.3470 H       
  45 H45           -0.6406    -5.5331    -3.3550 H       
  46 H46            2.1207    -1.4530    -3.5622 H       
@<TRIPOS>BOND
   1    1    2 1
   2    1   33 1
   3    1   34 1
   4    1   35 1
   5    2    3 1
   6    2   12 1
   7    2    4 1
   8    4    5 1
   9    4   36 1
  10    4   37 1
  11    5    6 am
  12    5   22 1
  13    6    7 2
  14    6    8 1
  15    8   12 1
  16    8    9 2
  17    9   10 1
  18    9   13 1
  19   10   11 2
  20   10   38 1
  21   11   12 1
  22   13   14 3
  23   14   15 1
  24   15   21 ar
  25   15   16 ar
  26   16   17 ar
  27   16   39 1
  28   17   18 ar
  29   17   40 1
  30   18   19 1
  31   18   20 ar
  32   19   41 1
  33   19   42 1
  34   20   21 ar
  35   21   43 1
  36   22   28 ar
  37   22   23 ar
  38   23   24 ar
  39   23   44 1
  40   24   25 ar
  41   24   45 1
  42   25   26 ar
  43   25   29 1
  44   26   27 1
  45   26   28 ar
  46   28   46 1
  47   29   30 1
  48   29   31 1
  49   29   32 1

#	End of record

