#	Name: ASD00451010
#	Creating user name:	WinNT
#	Creation time:	15. 06. 2019 18:36

#	Modifying user name:	WinNT
#	Modification time:	15. 06. 2019 18:36

#	Program:	/corina/corina34_cracker 3.40 0067  02.08.2006

@<TRIPOS>MOLECULE
ASD00451010
  48   51    0    0    0
SMALL
NO_CHARGES


@<TRIPOS>ATOM
   1 C1            -0.1146     1.5372     0.0349 C.ar    
   2 C2            -0.1915     0.1512     0.0197 C.ar    
   3 N3             1.1347     2.1703    -0.0080 N.am    
   4 C4            -1.2764     2.2961     0.0869 C.ar    
   5 C5            -1.4231    -0.4723     0.0621 C.ar    
   6 C6             2.1899     1.5419    -0.5632 C.2     
   7 C7            -2.5073     1.6719     0.1234 C.ar    
   8 C8            -2.5832     0.2862     0.1198 C.ar    
   9 O9             2.0762     0.3986    -0.9612 O.2     
  10 N10            3.3711     2.1809    -0.6774 N.am    
  11 O11           -3.7955    -0.3280     0.1553 O.3     
  12 C12            4.4987     1.4906    -1.1374 C.ar    
  13 C13           -4.1902    -0.8925     1.3256 C.ar    
  14 C14            5.5277     2.1796    -1.7651 C.ar    
  15 C15            4.5926     0.1162    -0.9615 C.ar    
  16 C16           -5.4580    -1.4532     1.4584 C.ar    
  17 C17           -3.3361    -0.9322     2.4255 C.ar    
  18 C18            6.6393     1.4960    -2.2181 C.ar    
  19 C19            5.7060    -0.5624    -1.4162 C.ar    
  20 N20           -6.5427    -1.5950     0.5954 N.am    
  21 C21           -5.8286    -2.0243     2.6762 C.ar    
  22 C22           -3.7732    -1.5145     3.5982 C.ar    
  23 C23            6.7276     0.1259    -2.0471 C.ar    
  24 C24           -7.5290    -2.2254     1.2616 C.2     
  25 N25           -7.1276    -2.4909     2.5185 N.am    
  26 N26           -4.9828    -2.0329     3.6955 N.ar    
  27 Cl27           8.1257    -0.7303    -2.6180 Cl      
  28 O28           -8.6195    -2.5054     0.7998 O.2     
  29 H29            1.2402     3.0608     0.3619 H       
  30 H30            3.4398     3.1191    -0.4409 H       
  31 H31           -6.5809    -1.2921    -0.3253 H       
  32 H32           -7.6548    -2.9386     3.1986 H       
  33 C33            7.7566     2.2432    -2.8995 C.3     
  34 F34            7.4411     3.6050    -2.9550 F       
  35 F35            8.9425     2.0683    -2.1781 F       
  36 F36            7.9236     1.7499    -4.1979 F       
  37 C37           -1.1936     3.8007     0.1039 C.3     
  38 F38           -2.4842     4.3382     0.1575 F       
  39 F39           -0.4688     4.2152     1.2264 F       
  40 F40           -0.5511     4.2455    -1.0565 F       
  41 H41            0.7115    -0.4395    -0.0255 H       
  42 H42           -1.4831    -1.5505     0.0499 H       
  43 H43           -3.4109     2.2620     0.1638 H       
  44 H44            5.4590     3.2490    -1.8994 H       
  45 H45            3.7956    -0.4214    -0.4692 H       
  46 H46           -2.3431    -0.5124     2.3612 H       
  47 H47            5.7794    -1.6313    -1.2796 H       
  48 H48           -3.1127    -1.5468     4.4521 H       
@<TRIPOS>BOND
   1    1    2 ar
   2    1    3 1
   3    1    4 ar
   4    2    5 ar
   5    2   41 1
   6    3   29 1
   7    3    6 am
   8    4   37 1
   9    4    7 ar
  10    5    8 ar
  11    5   42 1
  12    6    9 2
  13    6   10 am
  14    7    8 ar
  15    7   43 1
  16    8   11 1
  17   10   12 1
  18   10   30 1
  19   11   13 1
  20   12   14 ar
  21   12   15 ar
  22   13   16 ar
  23   13   17 ar
  24   14   18 ar
  25   14   44 1
  26   15   19 ar
  27   15   45 1
  28   16   20 1
  29   16   21 ar
  30   17   22 ar
  31   17   46 1
  32   18   23 ar
  33   18   33 1
  34   19   23 ar
  35   19   47 1
  36   20   31 1
  37   20   24 am
  38   21   26 ar
  39   21   25 1
  40   22   26 ar
  41   22   48 1
  42   23   27 1
  43   24   25 am
  44   24   28 2
  45   25   32 1
  46   33   34 1
  47   33   35 1
  48   33   36 1
  49   37   38 1
  50   37   39 1
  51   37   40 1

#	End of record

