#	Name: ASD08170154
#	Creating user name:	WinNT
#	Creation time:	15. 06. 2019 21:17

#	Modifying user name:	WinNT
#	Modification time:	15. 06. 2019 21:17

#	Program:	/corina/corina34_cracker 3.40 0067  02.08.2006

@<TRIPOS>MOLECULE
ASD08170154
  81   84    0    0    0
SMALL
NO_CHARGES


@<TRIPOS>ATOM
   1 Cl1            0.0000     0.0000     0.0000 Cl      
   2 H2             0.0000     1.3700     0.0000 H       
   3 Cl3            5.0000     6.3700     5.0000 Cl      
   4 H4             5.0000     7.7400     5.0000 H       
   5 C5            14.7715    24.8687    14.8718 C.3     
   6 C6            17.8782    27.7111    14.6778 C.3     
   7 C7            18.0115    29.2300    14.8045 C.3     
   8 C8            19.4548    29.6243    14.6248 C.2     
   9 C9            14.8084    23.3697    14.7214 C.2     
  10 S10           20.6628    29.7611    15.9030 S.3     
  11 C11           21.8245    30.2176    14.7296 C.2     
  12 N12           21.2547    30.2295    13.5623 N.2     
  13 N13           20.0326    29.9183    13.5035 N.2     
  14 S14           14.6223    22.4702    13.2155 S.3     
  15 N15           14.9879    22.5105    15.6739 N.2     
  16 N16           14.9861    21.2921    15.3433 N.2     
  17 C17           14.8081    21.0080    14.0884 C.2     
  18 N18           14.7758    19.7289    13.5435 N.am    
  19 C19           14.9379    18.6532    14.3391 C.2     
  20 O20           15.1120    18.8007    15.5303 O.2     
  21 N21           23.1568    30.5247    14.9845 N.am    
  22 C22           23.9743    30.8714    13.9706 C.2     
  23 C23           25.4179    31.2041    14.2468 C.3     
  24 O24           23.5481    30.9157    12.8360 O.2     
  25 C25           14.9028    17.2671    13.7487 C.3     
  26 N26           15.2288    16.2858    14.7865 N.am    
  27 C27           16.1851    25.4321    14.7130 C.3     
  28 N28           26.0892    31.5462    12.9904 N.am    
  29 C29           16.4592    15.8469    15.0851 C.2     
  30 C30           26.7708    30.5957    12.0984 C.3     
  31 S31           16.1408    27.2365    14.8941 S.3     
  32 C32           26.1775    32.7751    12.4635 C.2     
  33 O33           26.8440    32.8203    11.3045 O.3     
  34 C34           27.2873    31.4793    10.9465 C.3     
  35 O35           16.4876    14.9494    16.0767 O.3     
  36 C36           15.1318    14.7079    16.5523 C.3     
  37 C37           14.2595    15.6264    15.6750 C.3     
  38 C38           13.2799    14.8137    14.8682 C.ar    
  39 C39           11.9426    14.7971    15.2177 C.ar    
  40 C40           13.7178    14.0892    13.7754 C.ar    
  41 C41           12.8192    13.3436    13.0353 C.ar    
  42 C42           11.4829    13.3222    13.3884 C.ar    
  43 C43           11.0440    14.0515    14.4777 C.ar    
  44 O44           17.4578    16.2289    14.5077 O.2     
  45 C45           27.9198    29.9309    12.8117 C.ar    
  46 O46           25.6958    33.7586    12.9902 O.2     
  47 C47           28.1670    28.5846    12.6189 C.ar    
  48 C48           29.2209    27.9748    13.2733 C.ar    
  49 C49           30.0279    28.7114    14.1201 C.ar    
  50 C50           29.7812    30.0579    14.3122 C.ar    
  51 C51           28.7300    30.6687    13.6545 C.ar    
  52 H52           14.1225    25.2948    14.1068 H       
  53 H53           14.3868    25.1255    15.8588 H       
  54 H54           18.2205    27.3973    13.6917 H       
  55 H55           18.4848    27.2280    15.4438 H       
  56 H56           17.4048    29.7131    14.0385 H       
  57 H57           17.6691    29.5438    15.7906 H       
  58 H58           14.6365    19.6109    12.5908 H       
  59 H59           23.4976    30.4893    15.8919 H       
  60 H60           25.4711    32.0520    14.9298 H       
  61 H61           25.9094    30.3424    14.6984 H       
  62 H62           13.9061    17.0642    13.3570 H       
  63 H63           15.6317    17.1976    12.9412 H       
  64 H64           16.8341    25.0060    15.4781 H       
  65 H65           16.5698    25.1753    13.7260 H       
  66 H66           26.0691    29.8492    11.7263 H       
  67 H67           28.3751    31.4385    10.8911 H       
  68 H68           26.8437    31.1703    10.0000 H       
  69 H69           14.8568    13.6630    16.4085 H       
  70 H70           15.0396    14.9872    17.6019 H       
  71 H71           13.7362    16.3588    16.2896 H       
  72 H72           11.5998    15.3664    16.0690 H       
  73 H73           14.7618    14.1059    13.4995 H       
  74 H74           13.1612    12.7782    12.1811 H       
  75 H75           10.7808    12.7400    12.8100 H       
  76 H76           10.0000    14.0348    14.7535 H       
  77 H77           27.5365    28.0091    11.9573 H       
  78 H78           29.4137    26.9228    13.1232 H       
  79 H79           30.8509    28.2348    14.6319 H       
  80 H80           30.4115    30.6333    14.9741 H       
  81 H81           28.5372    31.7207    13.8045 H       
@<TRIPOS>BOND
   1    1    2 1
   2    3    4 1
   3    5    9 1
   4    5   27 1
   5    5   52 1
   6    5   53 1
   7    6    7 1
   8    6   31 1
   9    6   54 1
  10    6   55 1
  11    7    8 1
  12    7   56 1
  13    7   57 1
  14    8   10 1
  15    8   13 2
  16    9   14 1
  17    9   15 2
  18   10   11 1
  19   11   12 2
  20   11   21 1
  21   12   13 1
  22   14   17 1
  23   15   16 1
  24   16   17 2
  25   17   18 1
  26   18   19 am
  27   18   58 1
  28   19   20 2
  29   19   25 1
  30   21   22 am
  31   21   59 1
  32   22   23 1
  33   22   24 2
  34   23   28 1
  35   23   60 1
  36   23   61 1
  37   25   26 1
  38   25   62 1
  39   25   63 1
  40   26   29 am
  41   26   37 1
  42   27   31 1
  43   27   64 1
  44   27   65 1
  45   28   32 am
  46   28   30 1
  47   29   35 1
  48   29   44 2
  49   30   45 1
  50   30   34 1
  51   30   66 1
  52   32   33 1
  53   32   46 2
  54   33   34 1
  55   34   67 1
  56   34   68 1
  57   35   36 1
  58   36   37 1
  59   36   69 1
  60   36   70 1
  61   37   38 1
  62   37   71 1
  63   38   39 ar
  64   38   40 ar
  65   39   43 ar
  66   39   72 1
  67   40   41 ar
  68   40   73 1
  69   41   42 ar
  70   41   74 1
  71   42   43 ar
  72   42   75 1
  73   43   76 1
  74   45   47 ar
  75   45   51 ar
  76   47   48 ar
  77   47   77 1
  78   48   49 ar
  79   48   78 1
  80   49   50 ar
  81   49   79 1
  82   50   51 ar
  83   50   80 1
  84   51   81 1

#	End of record

