#	Name: ASD01903281
#	Creating user name:	WinNT
#	Creation time:	15. 06. 2019 19:54

#	Modifying user name:	WinNT
#	Modification time:	15. 06. 2019 19:54

#	Program:	/corina/corina34_cracker 3.40 0067  02.08.2006

@<TRIPOS>MOLECULE
ASD01903281
  45   49    0    0    0
SMALL
NO_CHARGES


@<TRIPOS>ATOM
   1 C1             0.0316     1.3107     0.0770 C.ar    
   2 C2            -1.0987     1.6195    -0.6625 C.ar    
   3 C3            -1.0981     2.7499    -1.4649 C.ar    
   4 C4             0.0425     3.5363    -1.4983 C.ar    
   5 C5             1.1430     3.1653    -0.7283 C.ar    
   6 N6             1.1011     2.0746     0.0269 N.ar    
   7 C7             2.3700     3.9948    -0.7532 C.2     
   8 O8             2.4139     4.9943    -1.4433 O.2     
   9 N9             3.4376     3.6411    -0.0106 N.am    
  10 C10            4.6296     4.3682    -0.1080 C.ar    
  11 C11            4.5906     5.7426    -0.3032 C.ar    
  12 C12            5.7674     6.4599    -0.3993 C.ar    
  13 C13            6.9892     5.8060    -0.3005 C.ar    
  14 C14            7.0274     4.4321    -0.1053 C.ar    
  15 C15            5.8516     3.7160    -0.0036 C.ar    
  16 N16            8.1847     6.5336    -0.4038 N.am    
  17 C17            8.8351     6.7735    -1.5566 C.2     
  18 C18           10.0433     7.5658    -1.2593 C.ar    
  19 C19           10.0473     7.7652     0.1266 C.ar    
  20 C20            8.8320     7.0900     0.6360 C.2     
  21 O21            8.4860     6.3995    -2.6583 O.2     
  22 O22            8.4825     7.0401     1.7978 O.2     
  23 C23           12.1211     8.8344    -1.4030 C.ar    
  24 C24           12.0913     9.0156    -0.0102 C.ar    
  25 C25           11.0749     8.4897     0.7326 C.ar    
  26 C26           11.0851     8.1011    -2.0403 C.ar    
  27 Cl27           5.7194     8.1780    -0.6439 Cl      
  28 C28           11.1218     7.9254    -3.4324 C.ar    
  29 C29           12.1463     8.4580    -4.1535 C.ar    
  30 C30           13.1640     9.1781    -3.5293 C.ar    
  31 C31           13.1625     9.3688    -2.1819 C.ar    
  32 H32            0.0329     0.4332     0.7066 H       
  33 H33           -1.9717     0.9854    -0.6145 H       
  34 H34           -1.9666     3.0117    -2.0510 H       
  35 H35            0.0781     4.4238    -2.1126 H       
  36 H36            3.3800     2.8826     0.5912 H       
  37 H37            3.6406     6.2505    -0.3803 H       
  38 H38            7.9773     3.9239    -0.0289 H       
  39 H39            5.8818     2.6472     0.1486 H       
  40 H40           12.8787     9.5727     0.4757 H       
  41 H41           11.0652     8.6361     1.8025 H       
  42 H42           10.3405     7.3696    -3.9294 H       
  43 H43           12.1714     8.3204    -5.2244 H       
  44 H44           13.9657     9.5906    -4.1240 H       
  45 H45           13.9579     9.9289    -1.7128 H       
@<TRIPOS>BOND
   1    1    2 ar
   2    1    6 ar
   3    1   32 1
   4    2    3 ar
   5    2   33 1
   6    3    4 ar
   7    3   34 1
   8    4    5 ar
   9    4   35 1
  10    5    6 ar
  11    5    7 1
  12    7    8 2
  13    7    9 am
  14    9   10 1
  15    9   36 1
  16   10   11 ar
  17   10   15 ar
  18   11   12 ar
  19   11   37 1
  20   12   27 1
  21   12   13 ar
  22   13   14 ar
  23   13   16 1
  24   14   15 ar
  25   14   38 1
  26   15   39 1
  27   16   17 am
  28   16   20 am
  29   17   18 1
  30   17   21 2
  31   18   19 ar
  32   18   26 ar
  33   19   20 1
  34   19   25 ar
  35   20   22 2
  36   23   24 ar
  37   23   26 ar
  38   23   31 ar
  39   24   25 ar
  40   24   40 1
  41   25   41 1
  42   26   28 ar
  43   28   29 ar
  44   28   42 1
  45   29   30 ar
  46   29   43 1
  47   30   31 ar
  48   30   44 1
  49   31   45 1

#	End of record

