#	Name: ASD01903035
#	Creating user name:	WinNT
#	Creation time:	15. 06. 2019 19:54

#	Modifying user name:	WinNT
#	Modification time:	15. 06. 2019 19:54

#	Program:	/corina/corina34_cracker 3.40 0067  02.08.2006

@<TRIPOS>MOLECULE
ASD01903035
  36   38    0    0    0
SMALL
NO_CHARGES


@<TRIPOS>ATOM
   1 C1             0.1109     1.3523    -0.5667 C.ar    
   2 C2             0.0912     0.0001    -0.2852 C.ar    
   3 C3             1.2788    -0.7191    -0.2502 C.ar    
   4 C4             2.4846    -0.0802    -0.4977 C.ar    
   5 C5             2.5053     1.2719    -0.7793 C.ar    
   6 C6             1.3186     1.9920    -0.8146 C.ar    
   7 N7             1.3395     3.3624    -1.0999 N.am    
   8 C8             2.2426     3.8559    -1.9702 C.2     
   9 O9             3.0897     3.1259    -2.4461 O.2     
  10 C10            2.2027     5.2880    -2.3465 C.ar    
  11 O11            1.2593    -2.0501     0.0273 O.3     
  12 N12            1.2753     6.0804    -1.8234 N.ar    
  13 C13            1.2054     7.3573    -2.1307 C.ar    
  14 C14            2.1043     7.9257    -3.0189 C.ar    
  15 C15            3.0894     7.1341    -3.5887 C.ar    
  16 C16            3.1427     5.7933    -3.2423 C.ar    
  17 Cl17          -1.4178    -0.8001     0.0252 Cl      
  18 C18            2.4490    -2.7002     0.1184 C.ar    
  19 C19            3.1130    -2.7663     1.3343 C.ar    
  20 C20            4.3244    -3.4289     1.4240 C.ar    
  21 C21            4.8726    -4.0251     0.3008 C.ar    
  22 C22            4.2110    -3.9594    -0.9115 C.ar    
  23 C23            2.9988    -3.3039    -1.0041 C.ar    
  24 F24            4.9727    -3.4939     2.6076 F       
  25 H25           -0.8128     1.9110    -0.5984 H       
  26 H26            3.4078    -0.6399    -0.4700 H       
  27 H27            3.4445     1.7690    -0.9719 H       
  28 H28            0.7040     3.9568    -0.6713 H       
  29 H29            0.4367     7.9711    -1.6850 H       
  30 H30            2.0378     8.9752    -3.2651 H       
  31 H31            3.8017     7.5536    -4.2837 H       
  32 H32            3.8969     5.1475    -3.6670 H       
  33 H33            2.6852    -2.3008     2.2100 H       
  34 H34            5.8183    -4.5418     0.3717 H       
  35 H35            4.6404    -4.4252    -1.7862 H       
  36 H36            2.4829    -3.2536    -1.9516 H       
@<TRIPOS>BOND
   1    1    2 ar
   2    1    6 ar
   3    1   25 1
   4    2    3 ar
   5    2   17 1
   6    3    4 ar
   7    3   11 1
   8    4    5 ar
   9    4   26 1
  10    5    6 ar
  11    5   27 1
  12    6    7 1
  13    7    8 am
  14    7   28 1
  15    8    9 2
  16    8   10 1
  17   10   12 ar
  18   10   16 ar
  19   11   18 1
  20   12   13 ar
  21   13   14 ar
  22   13   29 1
  23   14   15 ar
  24   14   30 1
  25   15   16 ar
  26   15   31 1
  27   16   32 1
  28   18   19 ar
  29   18   23 ar
  30   19   20 ar
  31   19   33 1
  32   20   21 ar
  33   20   24 1
  34   21   22 ar
  35   21   34 1
  36   22   23 ar
  37   22   35 1
  38   23   36 1

#	End of record

