#	Name: ASD01901142
#	Creating user name:	WinNT
#	Creation time:	15. 06. 2019 19:53

#	Modifying user name:	WinNT
#	Modification time:	15. 06. 2019 19:53

#	Program:	/corina/corina34_cracker 3.40 0067  02.08.2006

@<TRIPOS>MOLECULE
ASD01901142
  44   47    0    0    0
SMALL
NO_CHARGES


@<TRIPOS>ATOM
   1 C1            -0.0166     1.3750     0.0096 C.ar    
   2 C2             0.0021    -0.0041     0.0020 C.ar    
   3 C3             1.2078    -0.6830    -0.0131 C.ar    
   4 C4             2.4027     0.0149    -0.0208 C.ar    
   5 C5             2.3997     1.3941    -0.0129 C.ar    
   6 C6             1.1860     2.0866     0.0019 C.ar    
   7 C7             1.1748     3.5185     0.0093 C.1     
   8 C8             1.1655     4.6925     0.0153 C.1     
   9 C9             1.1543     6.1244     0.0226 C.ar    
  10 C10            2.3583     6.8345     0.0149 C.ar    
  11 C11            2.3436     8.2144     0.0221 C.ar    
  12 C12            1.1325     8.8988     0.0369 C.ar    
  13 C13           -0.0678     8.1953     0.0446 C.ar    
  14 C14           -0.0608     6.8154     0.0317 C.ar    
  15 N15            1.1215    10.3012     0.0446 N.am    
  16 C16            1.1057    10.9336    -1.1318 C.2     
  17 N17            1.1019    12.2633    -1.2807 N.am    
  18 C18            0.9960    13.1411    -0.1003 C.3     
  19 C19            1.0597    12.4399     1.2711 C.3     
  20 C20            1.1220    10.9250     1.2358 C.2     
  21 O21            1.0944    10.2528    -2.1386 O.2     
  22 F22            3.5068     8.9015     0.0151 F       
  23 O23            1.1755    10.2868     2.2653 O.2     
  24 F24           -1.2416     8.8640     0.0590 F       
  25 C25            1.2123    12.8847    -2.6053 C.3     
  26 C26            2.3568    13.9055    -2.5617 C.3     
  27 O27            2.1732    14.7705    -1.4384 O.3     
  28 C28            2.1853    14.1008    -0.1753 C.3     
  29 H29           -0.9584     1.9035     0.0169 H       
  30 H30           -0.9266    -0.5554     0.0083 H       
  31 H31            1.2163    -1.7630    -0.0187 H       
  32 H32            3.3399    -0.5217    -0.0326 H       
  33 H33            3.3330     1.9375    -0.0182 H       
  34 H34            3.2989     6.3039     0.0038 H       
  35 H35           -0.9929     6.2700     0.0328 H       
  36 H36            0.0676    13.7089    -0.1622 H       
  37 H37            1.9380    12.8079     1.8015 H       
  38 H38            0.1774    12.7282     1.8425 H       
  39 H39            1.4285    12.1214    -3.3527 H       
  40 H40            0.2786    13.3894    -2.8537 H       
  41 H41            3.3081    13.3821    -2.4666 H       
  42 H42            2.3545    14.4944    -3.4789 H       
  43 H43            2.1089    14.8380     0.6239 H       
  44 H44            3.1132    13.5395    -0.0657 H       
@<TRIPOS>BOND
   1    1    2 ar
   2    1    6 ar
   3    1   29 1
   4    2    3 ar
   5    2   30 1
   6    3    4 ar
   7    3   31 1
   8    4    5 ar
   9    4   32 1
  10    5    6 ar
  11    5   33 1
  12    6    7 1
  13    7    8 3
  14    8    9 1
  15    9   10 ar
  16    9   14 ar
  17   10   11 ar
  18   10   34 1
  19   11   12 ar
  20   11   22 1
  21   12   13 ar
  22   12   15 1
  23   13   14 ar
  24   13   24 1
  25   14   35 1
  26   15   16 am
  27   15   20 am
  28   16   17 am
  29   16   21 2
  30   17   25 1
  31   17   18 1
  32   18   19 1
  33   18   28 1
  34   18   36 1
  35   19   20 1
  36   19   37 1
  37   19   38 1
  38   20   23 2
  39   25   26 1
  40   25   39 1
  41   25   40 1
  42   26   27 1
  43   26   41 1
  44   26   42 1
  45   27   28 1
  46   28   43 1
  47   28   44 1

#	End of record

