#	Name: ASD03081130
#	Creating user name:	WinNT
#	Creation time:	15. 06. 2019 20:27

#	Modifying user name:	WinNT
#	Modification time:	15. 06. 2019 20:27

#	Program:	/corina/corina34_cracker 3.40 0067  02.08.2006

@<TRIPOS>MOLECULE
ASD03081130
  25   27    0    0    0
SMALL
NO_CHARGES


@<TRIPOS>ATOM
   1 O1            -0.0144     1.2085     0.0087 O.3     
   2 N2             0.0021    -0.0041     0.0020 N.2     
   3 C3             1.2349    -0.4422    -0.0121 C.2     
   4 N4             2.0457     0.6364    -0.0141 N.2     
   5 C5             1.2411     1.6828    -0.0008 C.2     
   6 C6             2.4342    -4.4276    -0.0446 C.ar    
   7 N7             1.1459    -4.1483    -0.0309 N.ar    
   8 C8             0.7219    -2.8962    -0.0200 C.ar    
   9 C9             1.6626    -1.8636    -0.0234 C.ar    
  10 C10            3.0169    -2.2054    -0.0382 C.ar    
  11 N11            3.3544    -3.4835    -0.0483 N.ar    
  12 C12            1.6453     3.1041     0.0023 C.ar    
  13 C13            0.6751     4.1082     0.0167 C.ar    
  14 C14            1.0587     5.4344     0.0199 C.ar    
  15 C15            2.4062     5.7690     0.0085 C.ar    
  16 C16            3.3713     4.7752    -0.0058 C.ar    
  17 C17            2.9983     3.4473    -0.0034 C.ar    
  18 F18            2.7774     7.0680     0.0108 F       
  19 F19            0.1218     6.4077     0.0338 F       
  20 H20            2.7454    -5.4617    -0.0486 H       
  21 H21           -0.3352    -2.6751    -0.0091 H       
  22 H22            3.7764    -1.4375    -0.0409 H       
  23 H23           -0.3730     3.8480     0.0249 H       
  24 H24            4.4181     5.0408    -0.0151 H       
  25 H25            3.7522     2.6740    -0.0100 H       
@<TRIPOS>BOND
   1    1    2 1
   2    1    5 1
   3    2    3 2
   4    3    4 1
   5    3    9 1
   6    4    5 2
   7    5   12 1
   8    6    7 ar
   9    6   11 ar
  10    6   20 1
  11    7    8 ar
  12    8    9 ar
  13    8   21 1
  14    9   10 ar
  15   10   11 ar
  16   10   22 1
  17   12   13 ar
  18   12   17 ar
  19   13   14 ar
  20   13   23 1
  21   14   15 ar
  22   14   19 1
  23   15   16 ar
  24   15   18 1
  25   16   17 ar
  26   16   24 1
  27   17   25 1

#	End of record

