#	Name: ASD02039225
#	Creating user name:	WinNT
#	Creation time:	15. 06. 2019 20:17

#	Modifying user name:	WinNT
#	Modification time:	15. 06. 2019 20:17

#	Program:	/corina/corina34_cracker 3.40 0067  02.08.2006

@<TRIPOS>MOLECULE
ASD02039225
  46   50    0    0    0
SMALL
NO_CHARGES


@<TRIPOS>ATOM
   1 N1             0.0019     1.2626     0.3690 N.2     
   2 C2             0.0062    -0.0135     0.0888 C.2     
   3 N3             1.2922    -0.3753    -0.1078 N.2     
   4 C4             1.9959     0.7162     0.0675 C.2     
   5 O5             1.1349     1.6955     0.3607 O.3     
   6 C6             3.4937     0.8430    -0.0402 C.3     
   7 N7            -1.1049    -0.8433     0.0081 N.pl3   
   8 C8            -2.3915    -0.3043     0.1284 C.ar    
   9 C9            -2.6367     1.0037    -0.2691 C.ar    
  10 C10           -3.9067     1.5347    -0.1499 C.ar    
  11 C11           -4.9369     0.7609     0.3671 C.ar    
  12 C12           -4.6921    -0.5448     0.7639 C.ar    
  13 C13           -3.4240    -1.0788     0.6399 C.ar    
  14 Cl14          -4.2139     3.1697    -0.6460 Cl      
  15 C15            4.0884     2.2519     0.0055 C.3     
  16 C16            4.2540     1.3124     1.2017 C.3     
  17 C17            3.4478     1.6125     2.4391 C.ar    
  18 C18            3.6876     0.9151     3.5888 C.ar    
  19 C19            2.9397     1.1938     4.7377 C.ar    
  20 C20            1.9459     2.1899     4.7023 C.ar    
  21 C21            1.7198     2.8873     3.5200 C.ar    
  22 C22            2.4719     2.5993     2.4018 C.ar    
  23 C23            3.1701     0.4653     5.9866 C.2     
  24 C24            2.4143     0.7783     7.0679 C.2     
  25 C25            1.4301     1.7861     6.9796 C.2     
  26 N26            1.2111     2.4601     5.8370 N.am    
  27 O27            0.7615     2.0514     7.9635 O.2     
  28 O28           -6.1869     1.2840     0.4848 O.3     
  29 C29           -7.1988     0.4316     1.0248 C.3     
  30 F30           -7.3392    -0.6983     0.2120 F       
  31 F31           -6.8342     0.0350     2.3159 F       
  32 H32            3.9824     0.1110    -0.6832 H       
  33 H33           -0.9894    -1.7963    -0.1317 H       
  34 H34           -1.8350     1.6055    -0.6709 H       
  35 H35           -5.4939    -1.1460     1.1664 H       
  36 H36           -3.2338    -2.0960     0.9492 H       
  37 H37            4.9687     2.4467    -0.6070 H       
  38 H38            3.3964     3.0871     0.1136 H       
  39 H39            5.2432     0.8891     1.3761 H       
  40 H40            4.4511     0.1516     3.6108 H       
  41 H41            0.9599     3.6537     3.4796 H       
  42 H42            2.2951     3.1417     1.4847 H       
  43 H43            3.9252    -0.3047     6.0451 H       
  44 H44            2.5657     0.2543     8.0001 H       
  45 H45            0.5265     3.1469     5.8109 H       
  46 H46           -8.1452     0.9709     1.0640 H       
@<TRIPOS>BOND
   1    1    2 2
   2    1    5 1
   3    2    3 1
   4    2    7 1
   5    3    4 2
   6    4    5 1
   7    4    6 1
   8    6   15 1
   9    6   16 1
  10    6   32 1
  11    7    8 1
  12    7   33 1
  13    8    9 ar
  14    8   13 ar
  15    9   10 ar
  16    9   34 1
  17   10   11 ar
  18   10   14 1
  19   11   12 ar
  20   11   28 1
  21   12   13 ar
  22   12   35 1
  23   13   36 1
  24   15   16 1
  25   15   37 1
  26   15   38 1
  27   16   17 1
  28   16   39 1
  29   17   18 ar
  30   17   22 ar
  31   18   19 ar
  32   18   40 1
  33   19   20 ar
  34   19   23 1
  35   20   21 ar
  36   20   26 1
  37   21   22 ar
  38   21   41 1
  39   22   42 1
  40   23   24 2
  41   23   43 1
  42   24   25 1
  43   24   44 1
  44   25   26 am
  45   25   27 2
  46   26   45 1
  47   28   29 1
  48   29   30 1
  49   29   31 1
  50   29   46 1

#	End of record

