#	Name: ASD01911613
#	Creating user name:	WinNT
#	Creation time:	15. 06. 2019 19:58

#	Modifying user name:	WinNT
#	Modification time:	15. 06. 2019 19:58

#	Program:	/corina/corina34_cracker 3.40 0067  02.08.2006

@<TRIPOS>MOLECULE
ASD01911613
  36   38    0    0    0
SMALL
NO_CHARGES


@<TRIPOS>ATOM
   1 C1            -0.0144     1.2130     0.0087 C.2     
   2 O2            -0.0798     0.1545    -0.5887 O.2     
   3 S3             1.3307     3.7535    -0.1513 S.3     
   4 C4             3.0882     3.6453    -0.1129 C.2     
   5 N5             3.4452     2.3887    -0.0158 N.2     
   6 C6             2.4947     1.4989     0.0321 C.2     
   7 C7             1.2217     1.9987    -0.0262 C.2     
   8 C8             3.9871     4.7581    -0.1778 C.1     
   9 C9             4.7241     5.6705    -0.2310 C.1     
  10 C10            5.6230     6.7833    -0.2959 C.ar    
  11 C11            7.0048     6.5735    -0.2567 C.ar    
  12 C12            7.8641     7.6502    -0.3197 C.ar    
  13 C13            7.3619     8.9358    -0.4214 C.ar    
  14 C14            5.9954     9.1516    -0.4603 C.ar    
  15 C15            5.1235     8.0847    -0.4046 C.ar    
  16 N16           -1.0809     1.6648     0.6978 N.am    
  17 C17           -0.9731     2.8737     1.5247 C.3     
  18 C18           -2.0137     3.8939     1.0459 C.3     
  19 C19           -3.3530     3.1978     0.9417 C.2     
  20 C20           -3.4407     1.9249     0.1287 C.3     
  21 C21           -2.3659     0.9574     0.6257 C.3     
  22 O22           -4.3282     3.6471     1.4943 O.2     
  23 H23            2.6970     0.4411     0.1118 H       
  24 H24            7.3982     5.5708    -0.1770 H       
  25 H25            8.9317     7.4898    -0.2892 H       
  26 H26            8.0398     9.7751    -0.4703 H       
  27 H27            5.6109    10.1578    -0.5390 H       
  28 H28            4.0574     8.2542    -0.4399 H       
  29 H29           -1.1623     2.6209     2.5680 H       
  30 H30            0.0265     3.2969     1.4246 H       
  31 H31           -2.0807     4.7132     1.7616 H       
  32 H32           -1.7248     4.2819     0.0691 H       
  33 H33           -4.4263     1.4766     0.2540 H       
  34 H34           -3.2703     2.1494    -0.9242 H       
  35 H35           -2.2832     0.1192    -0.0662 H       
  36 H36           -2.6375     0.5913     1.6158 H       
@<TRIPOS>BOND
   1    1    2 2
   2    1    7 1
   3    1   16 am
   4    3    4 1
   5    3    7 1
   6    4    5 2
   7    4    8 1
   8    5    6 1
   9    6    7 2
  10    6   23 1
  11    8    9 3
  12    9   10 1
  13   10   11 ar
  14   10   15 ar
  15   11   12 ar
  16   11   24 1
  17   12   13 ar
  18   12   25 1
  19   13   14 ar
  20   13   26 1
  21   14   15 ar
  22   14   27 1
  23   15   28 1
  24   16   17 1
  25   16   21 1
  26   17   18 1
  27   17   29 1
  28   17   30 1
  29   18   19 1
  30   18   31 1
  31   18   32 1
  32   19   20 1
  33   19   22 2
  34   20   21 1
  35   20   33 1
  36   20   34 1
  37   21   35 1
  38   21   36 1

#	End of record

