#	Name: ASD01813370
#	Creating user name:	WinNT
#	Creation time:	15. 06. 2019 19:30

#	Modifying user name:	WinNT
#	Modification time:	15. 06. 2019 19:30

#	Program:	/corina/corina34_cracker 3.40 0067  02.08.2006

@<TRIPOS>MOLECULE
ASD01813370
  51   54    0    0    0
SMALL
NO_CHARGES


@<TRIPOS>ATOM
   1 C1            -0.0169     1.3972     0.0097 C.2     
   2 C2             0.0021    -0.0041     0.0020 C.2     
   3 C3             1.1986    -0.6593    -0.0129 C.2     
   4 C4             2.3918     0.0821    -0.0204 C.2     
   5 N5             2.3437     1.4497    -0.0122 N.am    
   6 C6             1.1421     2.0937     0.0024 C.2     
   7 C7             3.6227    -0.5889    -0.0356 C.2     
   8 C8             4.7877     0.1218    -0.0425 C.2     
   9 C9             4.7345     1.5280    -0.0346 C.2     
  10 C10            3.4812     2.1736    -0.0189 C.2     
  11 O11            3.4258     3.3917    -0.0123 O.2     
  12 C12            5.9703     2.3140    -0.0413 C.2     
  13 O13            5.9124     3.6618    -0.0337 O.3     
  14 O14            7.0487     1.7516    -0.0537 O.2     
  15 C15            3.6593    -2.0954    -0.0439 C.3     
  16 C16            3.7837    -2.5946    -1.4848 C.3     
  17 N17            3.8194    -4.0631    -1.4929 N.3     
  18 C18            3.6997    -4.5849    -2.8602 C.3     
  19 C19            3.6592    -6.1156    -2.8287 C.3     
  20 N20            4.8646    -6.6303    -2.1669 N.3     
  21 C21            4.9938    -6.0915    -0.8040 C.3     
  22 C22            5.0459    -4.5639    -0.8552 C.3     
  23 C23            3.5982    -6.6318    -4.2695 C.3     
  24 C24            3.5942    -8.1618    -4.2677 C.3     
  25 C25            4.8518    -8.6600    -3.5489 C.3     
  26 C26            4.8665    -8.1002    -2.1260 C.3     
  27 H27           -0.9605     1.9226     0.0170 H       
  28 H28           -0.9233    -0.5609     0.0082 H       
  29 H29            1.2282    -1.7389    -0.0187 H       
  30 H30            1.1156     3.1733     0.0087 H       
  31 H31            5.7393    -0.3889    -0.0536 H       
  32 H32            6.7544     4.1373    -0.0385 H       
  33 H33            4.5153    -2.4412     0.5356 H       
  34 H34            2.7412    -2.4836     0.3971 H       
  35 H35            2.9277    -2.2488    -2.0643 H       
  36 H36            4.7018    -2.2064    -1.9259 H       
  37 H37            2.7831    -4.2073    -3.3133 H       
  38 H38            4.5561    -4.2570    -3.4495 H       
  39 H39            2.7751    -6.4454    -2.2831 H       
  40 H40            4.1373    -6.4052    -0.2074 H       
  41 H41            5.9093    -6.4704    -0.3497 H       
  42 H42            5.9133    -4.2479    -1.4346 H       
  43 H43            5.1182    -4.1674     0.1576 H       
  44 H44            2.6890    -6.2671    -4.7474 H       
  45 H45            4.4669    -6.2719    -4.8210 H       
  46 H46            2.7081    -8.5240    -3.7463 H       
  47 H47            3.5911    -8.5282    -5.2943 H       
  48 H48            4.8437    -9.7493    -3.5123 H       
  49 H49            5.7375    -8.3182    -4.0845 H       
  50 H50            5.7617    -8.4469    -1.6097 H       
  51 H51            3.9833    -8.4487    -1.5906 H       
@<TRIPOS>BOND
   1    1    2 1
   2    1    6 2
   3    1   27 1
   4    2    3 2
   5    2   28 1
   6    3    4 1
   7    3   29 1
   8    4    5 1
   9    4    7 2
  10    5    6 1
  11    5   10 am
  12    6   30 1
  13    7    8 1
  14    7   15 1
  15    8    9 2
  16    8   31 1
  17    9   10 1
  18    9   12 1
  19   10   11 2
  20   12   13 1
  21   12   14 2
  22   13   32 1
  23   15   16 1
  24   15   33 1
  25   15   34 1
  26   16   17 1
  27   16   35 1
  28   16   36 1
  29   17   18 1
  30   17   22 1
  31   18   19 1
  32   18   37 1
  33   18   38 1
  34   19   20 1
  35   19   23 1
  36   19   39 1
  37   20   21 1
  38   20   26 1
  39   21   22 1
  40   21   40 1
  41   21   41 1
  42   22   42 1
  43   22   43 1
  44   23   24 1
  45   23   44 1
  46   23   45 1
  47   24   25 1
  48   24   46 1
  49   24   47 1
  50   25   26 1
  51   25   48 1
  52   25   49 1
  53   26   50 1
  54   26   51 1

#	End of record

