#	Name: ASD01916291
#	Creating user name:	WinNT
#	Creation time:	15. 06. 2019 20:07

#	Modifying user name:	WinNT
#	Modification time:	15. 06. 2019 20:07

#	Program:	/corina/corina34_cracker 3.40 0067  02.08.2006

@<TRIPOS>MOLECULE
ASD01916291
  43   44    0    0    0
SMALL
NO_CHARGES


@<TRIPOS>ATOM
   1 C1            -0.0169     1.3978     0.0097 C.ar    
   2 C2             0.0021    -0.0041     0.0020 C.ar    
   3 C3             1.2370    -0.6678    -0.0133 C.ar    
   4 N4             2.3607     0.0094    -0.0200 N.ar    
   5 C5             2.3777     1.3384    -0.0130 C.ar    
   6 C6             1.1896     2.0703     0.0018 C.ar    
   7 C7            -1.2220    -0.7472     0.0102 C.1     
   8 C8            -2.2255    -1.3564     0.0169 C.1     
   9 C9            -3.4496    -2.0996     0.0250 C.ar    
  10 C10            3.6733     2.0513    -0.0206 C.2     
  11 O11            3.6984     3.2666    -0.0142 O.2     
  12 N12            4.8263     1.3535    -0.0344 N.am    
  13 C13            6.1098     2.0597    -0.0419 C.3     
  14 C14            7.1921     1.1568     0.5534 C.3     
  15 C15            6.4834     2.4234    -1.4803 C.3     
  16 C16            6.7597     0.6920     1.9454 C.3     
  17 O17            7.3814     0.0197    -0.2911 O.3     
  18 C18            8.5043     1.9363     0.6608 C.3     
  19 C19           -3.4226    -3.4971     0.0173 C.ar    
  20 C20           -4.6043    -4.2069     0.0252 C.ar    
  21 C21           -5.8190    -3.5387     0.0408 C.ar    
  22 C22           -5.8552    -2.1533     0.0486 C.ar    
  23 C23           -4.6792    -1.4295     0.0466 C.ar    
  24 F24           -6.9729    -4.2414     0.0480 F       
  25 F25           -4.7148    -0.0790     0.0547 F       
  26 H26           -0.9518     1.9386     0.0171 H       
  27 H27            1.2636    -1.7475    -0.0194 H       
  28 H28            1.2132     3.1501     0.0071 H       
  29 H29            4.8062     0.3837    -0.0395 H       
  30 H30            6.0276     2.9692     0.5532 H       
  31 H31            7.4384     2.9488    -1.4859 H       
  32 H32            6.5657     1.5139    -2.0754 H       
  33 H33            5.7124     3.0666    -1.9044 H       
  34 H34            5.8249     0.1367     1.8689 H       
  35 H35            7.5307     0.0488     2.3696 H       
  36 H36            6.6153     1.5594     2.5896 H       
  37 H37            7.6569     0.2399    -1.1914 H       
  38 H38            8.3599     2.8037     1.3049 H       
  39 H39            9.2753     1.2931     1.0849 H       
  40 H40            8.8124     2.2675    -0.3309 H       
  41 H41           -2.4776    -4.0198     0.0048 H       
  42 H42           -4.5838    -5.2866     0.0188 H       
  43 H43           -6.8048    -1.6389     0.0607 H       
@<TRIPOS>BOND
   1    1    2 ar
   2    1    6 ar
   3    1   26 1
   4    2    3 ar
   5    2    7 1
   6    3    4 ar
   7    3   27 1
   8    4    5 ar
   9    5    6 ar
  10    5   10 1
  11    6   28 1
  12    7    8 3
  13    8    9 1
  14    9   19 ar
  15    9   23 ar
  16   10   11 2
  17   10   12 am
  18   12   13 1
  19   12   29 1
  20   13   14 1
  21   13   15 1
  22   13   30 1
  23   14   16 1
  24   14   17 1
  25   14   18 1
  26   15   31 1
  27   15   32 1
  28   15   33 1
  29   16   34 1
  30   16   35 1
  31   16   36 1
  32   17   37 1
  33   18   38 1
  34   18   39 1
  35   18   40 1
  36   19   20 ar
  37   19   41 1
  38   20   21 ar
  39   20   42 1
  40   21   22 ar
  41   21   24 1
  42   22   23 ar
  43   22   43 1
  44   23   25 1

#	End of record

