#	Name: ASD03240466
#	Creating user name:	WinNT
#	Creation time:	15. 06. 2019 20:35

#	Modifying user name:	WinNT
#	Modification time:	15. 06. 2019 20:35

#	Program:	/corina/corina34_cracker 3.40 0067  02.08.2006

@<TRIPOS>MOLECULE
ASD03240466
  89   95    0    0    0
SMALL
NO_CHARGES


@<TRIPOS>ATOM
   1 C1            -4.5797    -0.7372    -3.2223 C.ar    
   2 C2            -5.0252     2.6978    -2.3081 C.ar    
   3 C3            -5.1099     1.7684    -3.3528 C.ar    
   4 C4            -5.5440     0.3785    -3.0869 C.2     
   5 C5            -4.6160     3.9827    -2.6039 C.ar    
   6 C6            -4.3027     4.3107    -3.9230 C.ar    
   7 N7            -4.3934     3.4054    -4.8890 N.ar    
   8 C8            -4.7801     2.1706    -4.6470 C.ar    
   9 C9            -3.8627     5.6886    -4.2500 C.2     
  10 C10           -3.7217     6.7216    -3.3682 C.2     
  11 N11           -3.3043     7.7974    -4.0642 N.pl3   
  12 N12           -3.1820     7.4288    -5.4093 N.2     
  13 C13           -3.5081     6.1691    -5.5264 C.2     
  14 C14           -4.7676    -1.7095    -4.2048 C.ar    
  15 C15           -6.8196     0.1278    -2.7207 C.2     
  16 N16           -7.7610     1.1344    -2.7677 N.pl3   
  17 C17           -8.9774     1.0382    -1.9570 C.3     
  18 C18           -3.4769    -0.8165    -2.3717 C.ar    
  19 C19           -2.5786    -1.8550    -2.5061 C.ar    
  20 C20           -2.7699    -2.8170    -3.4834 C.ar    
  21 C21           -3.8629    -2.7436    -4.3301 C.ar    
  22 C22           -3.5136     5.3717    -6.8052 C.3     
  23 Cl23          -1.6352    -4.1207    -3.6472 Cl      
  24 C24           -7.5446     2.3001    -3.6284 C.3     
  25 C25           -9.1065     2.2860    -1.0810 C.3     
  26 C26          -10.1775     0.9337    -2.8624 C.ar    
  27 C27          -10.1057     0.1838    -4.0215 C.ar    
  28 C28          -11.2065     0.0879    -4.8520 C.ar    
  29 C29          -12.3794     0.7416    -4.5233 C.ar    
  30 C30          -12.4515     1.4907    -3.3637 C.ar    
  31 C31          -11.3520     1.5830    -2.5310 C.ar    
  32 C32           -3.0268     9.1244    -3.5090 C.3     
  33 C33           -2.2659     9.9428    -4.5200 C.ar    
  34 C34           -4.3263     9.8133    -3.1807 C.ar    
  35 C35           -2.2029     8.9821    -2.2553 C.ar    
  36 C36           -2.6657     9.5027    -1.0612 C.ar    
  37 C37           -1.9099     9.3723     0.0888 C.ar    
  38 C38           -0.6915     8.7208     0.0449 C.ar    
  39 C39           -0.2291     8.1994    -1.1489 C.ar    
  40 C40           -0.9869     8.3261    -2.2981 C.ar    
  41 C41           -2.7624    10.0946    -5.8012 C.ar    
  42 C42           -2.0644    10.8453    -6.7286 C.ar    
  43 C43           -0.8700    11.4446    -6.3747 C.ar    
  44 C44           -0.3739    11.2935    -5.0933 C.ar    
  45 C45           -1.0741    10.5464    -4.1647 C.ar    
  46 C46           -4.3255    11.1373    -2.7832 C.ar    
  47 C47           -5.5175    11.7692    -2.4819 C.ar    
  48 C48           -6.7103    11.0773    -2.5786 C.ar    
  49 C49           -6.7112     9.7536    -2.9770 C.ar    
  50 C50           -5.5196     9.1230    -3.2824 C.ar    
  51 H51           -5.2783     2.4172    -1.2964 H       
  52 H52           -4.5396     4.7251    -1.8233 H       
  53 H53           -4.8422     1.4613    -5.4591 H       
  54 H54           -3.9109     6.6835    -2.3055 H       
  55 H55           -5.6198    -1.6532    -4.8659 H       
  56 H56           -7.1024    -0.8611    -2.3912 H       
  57 H57           -8.9224     0.1533    -1.3230 H       
  58 H58           -3.3264    -0.0662    -1.6095 H       
  59 H59           -1.7245    -1.9174    -1.8481 H       
  60 H60           -4.0073    -3.4969    -5.0904 H       
  61 H61           -2.5364     4.9113    -6.9505 H       
  62 H62           -4.2759     4.5949    -6.7456 H       
  63 H63           -3.7326     6.0321    -7.6442 H       
  64 H64           -6.9868     1.9986    -4.5149 H       
  65 H65           -8.5073     2.7141    -3.9282 H       
  66 H66           -6.9787     3.0549    -3.0823 H       
  67 H67           -8.2385     2.3616    -0.4262 H       
  68 H68           -9.1615     3.1709    -1.7151 H       
  69 H69          -10.0116     2.2144    -0.4778 H       
  70 H70           -9.1894    -0.3269    -4.2783 H       
  71 H71          -11.1502    -0.4973    -5.7579 H       
  72 H72          -13.2393     0.6673    -5.1725 H       
  73 H73          -13.3677     2.0016    -3.1071 H       
  74 H74          -11.4083     2.1683    -1.6251 H       
  75 H75           -3.6177    10.0117    -1.0270 H       
  76 H76           -2.2712     9.7796     1.0215 H       
  77 H77           -0.1006     8.6195     0.9433 H       
  78 H78            0.7230     7.6908    -1.1832 H       
  79 H79           -0.6256     7.9188    -3.2308 H       
  80 H80           -3.6956     9.6264    -6.0776 H       
  81 H81           -2.4520    10.9633    -7.7297 H       
  82 H82           -0.3243    12.0305    -7.0995 H       
  83 H83            0.5594    11.7615    -4.8170 H       
  84 H84           -0.6865    10.4284    -3.1635 H       
  85 H85           -3.3936    11.6779    -2.7076 H       
  86 H86           -5.5168    12.8034    -2.1707 H       
  87 H87           -7.6415    11.5708    -2.3426 H       
  88 H88           -7.6431     9.2129    -3.0522 H       
  89 H89           -5.5203     8.0888    -3.5937 H       
@<TRIPOS>BOND
   1    1   14 ar
   2    1   18 ar
   3    1    4 1
   4    2    3 ar
   5    2    5 ar
   6    2   51 1
   7    3    4 1
   8    3    8 ar
   9    4   15 2
  10    5    6 ar
  11    5   52 1
  12    6    7 ar
  13    6    9 1
  14    7    8 ar
  15    8   53 1
  16    9   10 2
  17    9   13 1
  18   10   11 1
  19   10   54 1
  20   11   12 1
  21   11   32 1
  22   12   13 2
  23   13   22 1
  24   14   21 ar
  25   14   55 1
  26   15   16 1
  27   15   56 1
  28   16   17 1
  29   16   24 1
  30   17   25 1
  31   17   26 1
  32   17   57 1
  33   18   19 ar
  34   18   58 1
  35   19   20 ar
  36   19   59 1
  37   20   21 ar
  38   20   23 1
  39   21   60 1
  40   22   61 1
  41   22   62 1
  42   22   63 1
  43   24   64 1
  44   24   65 1
  45   24   66 1
  46   25   67 1
  47   25   68 1
  48   25   69 1
  49   26   27 ar
  50   26   31 ar
  51   27   28 ar
  52   27   70 1
  53   28   29 ar
  54   28   71 1
  55   29   30 ar
  56   29   72 1
  57   30   31 ar
  58   30   73 1
  59   31   74 1
  60   32   33 1
  61   32   34 1
  62   32   35 1
  63   33   41 ar
  64   33   45 ar
  65   34   46 ar
  66   34   50 ar
  67   35   36 ar
  68   35   40 ar
  69   36   37 ar
  70   36   75 1
  71   37   38 ar
  72   37   76 1
  73   38   39 ar
  74   38   77 1
  75   39   40 ar
  76   39   78 1
  77   40   79 1
  78   41   42 ar
  79   41   80 1
  80   42   43 ar
  81   42   81 1
  82   43   44 ar
  83   43   82 1
  84   44   45 ar
  85   44   83 1
  86   45   84 1
  87   46   47 ar
  88   46   85 1
  89   47   48 ar
  90   47   86 1
  91   48   49 ar
  92   48   87 1
  93   49   50 ar
  94   49   88 1
  95   50   89 1

#	End of record

