#	Name: ASD01208651
#	Creating user name:	WinNT
#	Creation time:	15. 06. 2019 19:10

#	Modifying user name:	WinNT
#	Modification time:	15. 06. 2019 19:10

#	Program:	/corina/corina34_cracker 3.40 0067  02.08.2006

@<TRIPOS>MOLECULE
ASD01208651
 107  109    0    0    0
SMALL
NO_CHARGES


@<TRIPOS>ATOM
   1 O1             4.9524     4.6689    -3.2748 O.3     
   2 C2             4.6745     4.4276    -4.5742 C.2     
   3 N3             5.7287     4.1901    -5.2990 N.2     
   4 C4             6.9199     4.2814    -4.4325 C.3     
   5 C5             6.3545     4.9933    -3.1795 C.3     
   6 C6             6.9652     4.4195    -1.8995 C.3     
   7 O7             6.3956     5.0748    -0.7645 O.3     
   8 Si8            6.8725     4.4563     0.6673 Si      
   9 C9             6.2237     2.7185     0.8401 C.3     
  10 C10            6.0048     2.4007     2.3206 C.3     
  11 C11            4.8962     2.5928     0.0898 C.3     
  12 C12            8.7337     4.4349     0.7455 C.3     
  13 C13            9.2792     5.7876     0.2832 C.3     
  14 C14            9.1807     4.1696     2.1845 C.3     
  15 C15            6.2048     5.5090     2.0518 C.3     
  16 C16            7.0145     6.8039     2.1439 C.3     
  17 C17            4.7375     5.8435     1.7761 C.3     
  18 N18            2.1572     4.6740    -4.4078 N.pl3   
  19 C19            3.3091     4.4319    -5.1184 C.2     
  20 C20            2.9597     4.1942    -6.4300 C.2     
  21 C21            1.5703     4.2935    -6.5181 C.2     
  22 C22            1.0935     4.5899    -5.2613 C.2     
  23 C23           -0.3260     4.7835    -4.8972 C.ar    
  24 C24           -0.6762     5.0811    -3.5795 C.ar    
  25 C25           -2.0071     5.2621    -3.2428 C.ar    
  26 C26           -2.9922     5.1475    -4.2135 C.ar    
  27 C27           -2.6485     4.8518    -5.5246 C.ar    
  28 C28           -1.3191     4.6748    -5.8711 C.ar    
  29 O29           -3.6171     4.7407    -6.4714 O.3     
  30 Si30          -3.9674     6.1416    -7.2296 Si      
  31 C31           -4.5593     7.3920    -5.9818 C.3     
  32 C32           -5.1204     8.6142    -6.7113 C.3     
  33 C33           -5.6547     6.7682    -5.1148 C.3     
  34 C34           -2.4400     6.7868    -8.0789 C.3     
  35 C35           -2.0117     5.8062    -9.1724 C.3     
  36 C36           -2.7421     8.1495    -8.7057 C.3     
  37 C37           -5.3032     5.8461    -8.4942 C.3     
  38 C38           -4.9715     4.5901    -9.3025 C.3     
  39 C39           -6.6449     5.6560    -7.7839 C.3     
  40 O40           -2.3492     5.5520    -1.9598 O.3     
  41 C41           -1.3021     5.5267    -0.9878 C.3     
  42 C42           -1.8889     5.1934     0.3854 C.3     
  43 C43           -0.6235     6.8970    -0.9334 C.3     
  44 O44           -2.7627     6.2461     0.7982 O.3     
  45 C45           -3.3669     6.0326     2.0755 C.3     
  46 H46            7.2947     3.2894    -4.1805 H       
  47 H47            7.6983     4.8819    -4.9032 H       
  48 H48            6.5117     6.0704    -3.2373 H       
  49 H49            6.7566     3.3510    -1.8447 H       
  50 H50            8.0434     4.5792    -1.9080 H       
  51 H51            6.9457     2.0177     0.4209 H       
  52 H52            5.4016     3.1864     2.7756 H       
  53 H53            5.4881     1.4455     2.4147 H       
  54 H54            6.9687     2.3438     2.8264 H       
  55 H55            4.9633     3.1250    -0.8591 H       
  56 H56            4.6833     1.5404    -0.0981 H       
  57 H57            4.0962     3.0234     0.6921 H       
  58 H58            9.1157     3.6478     0.0954 H       
  59 H59            9.0072     6.5556     1.0073 H       
  60 H60           10.3648     5.7330     0.2019 H       
  61 H61            8.8541     6.0378    -0.6888 H       
  62 H62           10.2669     4.2371     2.2459 H       
  63 H63            8.7326     4.9104     2.8466 H       
  64 H64            8.8610     3.1721     2.4862 H       
  65 H65            6.2827     4.9640     2.9926 H       
  66 H66            6.5879     7.4451     2.9153 H       
  67 H67            8.0482     6.5688     2.3976 H       
  68 H68            6.9843     7.3204     1.1845 H       
  69 H69            4.1147     4.9874     2.0356 H       
  70 H70            4.4418     6.7034     2.3771 H       
  71 H71            4.6107     6.0780     0.7192 H       
  72 H72            2.1077     4.8679    -3.4587 H       
  73 H73            3.6370     3.9722    -7.2414 H       
  74 H74            0.9768     4.1617    -7.4107 H       
  75 H75            0.0898     5.1697    -2.8232 H       
  76 H76           -4.0293     5.2886    -3.9474 H       
  77 H77           -1.0521     4.4487    -6.8929 H       
  78 H78           -3.7254     7.6973    -5.3498 H       
  79 H79           -5.4092     9.3715    -5.9825 H       
  80 H80           -4.3589     9.0218    -7.3763 H       
  81 H81           -5.9928     8.3202    -7.2949 H       
  82 H82           -5.3433     5.7735    -4.7959 H       
  83 H83           -5.8251     7.3939    -4.2387 H       
  84 H84           -6.5762     6.6927    -5.6922 H       
  85 H85           -1.6362     6.8922    -7.3503 H       
  86 H86           -2.7660     5.7869    -9.9590 H       
  87 H87           -1.0573     6.1241    -9.5921 H       
  88 H88           -1.9067     4.8089    -8.7453 H       
  89 H89           -3.6873     8.0993    -9.2463 H       
  90 H90           -2.8118     8.9029    -7.9211 H       
  91 H91           -1.9423     8.4171    -9.3963 H       
  92 H92           -5.3652     6.7035    -9.1644 H       
  93 H93           -4.8300     3.7485    -8.6243 H       
  94 H94           -5.7911     4.3714    -9.9869 H       
  95 H95           -4.0569     4.7555    -9.8720 H       
  96 H96           -7.3877     5.3025    -8.4991 H       
  97 H97           -6.5323     4.9232    -6.9849 H       
  98 H98           -6.9705     6.6067    -7.3619 H       
  99 H99           -0.5688     4.7688    -1.2632 H       
 100 H100          -2.4481     4.2598     0.3246 H       
 101 H101          -1.0811     5.0867     1.1095 H       
 102 H102           0.1752     6.8777    -0.1919 H       
 103 H103          -0.2055     7.1344    -1.9117 H       
 104 H104          -1.3568     7.6549    -0.6580 H       
 105 H105          -3.9568     5.1163     2.0498 H       
 106 H106          -2.5899     5.9432     2.8346 H       
 107 H107          -4.0150     6.8753     2.3163 H       
@<TRIPOS>BOND
   1    1    2 1
   2    1    5 1
   3    2    3 2
   4    2   19 1
   5    3    4 1
   6    4    5 1
   7    4   46 1
   8    4   47 1
   9    5    6 1
  10    5   48 1
  11    6    7 1
  12    6   49 1
  13    6   50 1
  14    7    8 1
  15    8    9 1
  16    8   12 1
  17    8   15 1
  18    9   10 1
  19    9   11 1
  20    9   51 1
  21   10   52 1
  22   10   53 1
  23   10   54 1
  24   11   55 1
  25   11   56 1
  26   11   57 1
  27   12   13 1
  28   12   14 1
  29   12   58 1
  30   13   59 1
  31   13   60 1
  32   13   61 1
  33   14   62 1
  34   14   63 1
  35   14   64 1
  36   15   16 1
  37   15   17 1
  38   15   65 1
  39   16   66 1
  40   16   67 1
  41   16   68 1
  42   17   69 1
  43   17   70 1
  44   17   71 1
  45   18   19 1
  46   18   22 1
  47   18   72 1
  48   19   20 2
  49   20   21 1
  50   20   73 1
  51   21   22 2
  52   21   74 1
  53   22   23 1
  54   23   24 ar
  55   23   28 ar
  56   24   25 ar
  57   24   75 1
  58   25   26 ar
  59   25   40 1
  60   26   27 ar
  61   26   76 1
  62   27   28 ar
  63   27   29 1
  64   28   77 1
  65   29   30 1
  66   30   31 1
  67   30   34 1
  68   30   37 1
  69   31   32 1
  70   31   33 1
  71   31   78 1
  72   32   79 1
  73   32   80 1
  74   32   81 1
  75   33   82 1
  76   33   83 1
  77   33   84 1
  78   34   35 1
  79   34   36 1
  80   34   85 1
  81   35   86 1
  82   35   87 1
  83   35   88 1
  84   36   89 1
  85   36   90 1
  86   36   91 1
  87   37   38 1
  88   37   39 1
  89   37   92 1
  90   38   93 1
  91   38   94 1
  92   38   95 1
  93   39   96 1
  94   39   97 1
  95   39   98 1
  96   40   41 1
  97   41   42 1
  98   41   43 1
  99   41   99 1
 100   42   44 1
 101   42  100 1
 102   42  101 1
 103   43  102 1
 104   43  103 1
 105   43  104 1
 106   44   45 1
 107   45  105 1
 108   45  106 1
 109   45  107 1

#	End of record

