#	Name: ASD00311014
#	Creating user name:	WinNT
#	Creation time:	15. 06. 2019 18:34

#	Modifying user name:	WinNT
#	Modification time:	15. 06. 2019 18:34

#	Program:	/corina/corina34_cracker 3.40 0067  02.08.2006

@<TRIPOS>MOLECULE
ASD00311014
  32   34    0    0    0
SMALL
NO_CHARGES


@<TRIPOS>ATOM
   1 C1            -0.0167     1.3796     0.0096 C.ar    
   2 C2             0.0021    -0.0041     0.0020 C.ar    
   3 N3             1.1410    -0.6699    -0.0120 N.ar    
   4 C4             2.3057    -0.0556    -0.0198 C.ar    
   5 C5             2.3728     1.3386    -0.0129 C.ar    
   6 C6             1.1802     2.0731     0.0019 C.ar    
   7 C7             4.9195     1.2489    -0.0358 C.2     
   8 C8             3.6808     2.0286    -0.0207 C.2     
   9 C9             7.3398    -0.2988    -0.0653 C.ar    
  10 C10            7.3580     1.0966    -0.0580 C.ar    
  11 C11            6.1146     1.8793    -0.0429 C.2     
  12 C12            8.5408    -0.9973    -0.0790 C.ar    
  13 N13            9.7053    -0.3986    -0.0852 N.ar    
  14 C14            9.8281     0.9310    -0.0795 C.ar    
  15 C15            8.6699     1.7470    -0.0655 C.ar    
  16 O16            3.7273     3.2447    -0.0146 O.2     
  17 C17            8.7985     3.1394    -0.0596 C.ar    
  18 C18           10.0415     3.7006    -0.0675 C.ar    
  19 C19           11.1838     2.9036    -0.0817 C.ar    
  20 C20           11.0934     1.5454    -0.0869 C.ar    
  21 H21           -0.9560     1.9125     0.0170 H       
  22 H22           -0.9310    -0.5479     0.0080 H       
  23 H23            3.2168    -0.6354    -0.0312 H       
  24 H24            1.1947     3.1530     0.0072 H       
  25 H25            4.8782     0.1697    -0.0412 H       
  26 H26            6.4002    -0.8313    -0.0557 H       
  27 H27            6.1559     2.9585    -0.0375 H       
  28 H28            8.5128    -2.0769    -0.0846 H       
  29 H29            7.9192     3.7664    -0.0493 H       
  30 H30           10.1413     4.7759    -0.0630 H       
  31 H31           12.1574     3.3710    -0.0885 H       
  32 H32           11.9892     0.9423    -0.0972 H       
@<TRIPOS>BOND
   1    1    2 ar
   2    1    6 ar
   3    1   21 1
   4    2    3 ar
   5    2   22 1
   6    3    4 ar
   7    4    5 ar
   8    4   23 1
   9    5    6 ar
  10    5    8 1
  11    6   24 1
  12    7    8 1
  13    7   11 2
  14    7   25 1
  15    8   16 2
  16    9   10 ar
  17    9   12 ar
  18    9   26 1
  19   10   11 1
  20   10   15 ar
  21   11   27 1
  22   12   13 ar
  23   12   28 1
  24   13   14 ar
  25   14   15 ar
  26   14   20 ar
  27   15   17 ar
  28   17   18 ar
  29   17   29 1
  30   18   19 ar
  31   18   30 1
  32   19   20 ar
  33   19   31 1
  34   20   32 1

#	End of record

