#	Name: ASD01940617
#	Creating user name:	WinNT
#	Creation time:	15. 06. 2019 20:12

#	Modifying user name:	WinNT
#	Modification time:	15. 06. 2019 20:12

#	Program:	/corina/corina34_cracker 3.40 0067  02.08.2006

@<TRIPOS>MOLECULE
ASD01940617
  51   54    0    0    0
SMALL
NO_CHARGES


@<TRIPOS>ATOM
   1 C1            -0.1964     1.4527     0.2981 C.ar    
   2 C2            -0.3567     0.0587     0.3286 C.ar    
   3 C3             0.7496    -0.7578     0.4904 C.ar    
   4 C4             2.0130    -0.2039     0.6223 C.ar    
   5 C5             2.1837     1.1699     0.5939 C.ar    
   6 C6             1.0889     2.0056     0.4327 C.ar    
   7 N7             1.2618     3.3838     0.4039 N.pl3   
   8 C8             2.3411     3.9676     1.0758 C.ar    
   9 C9             2.9959     3.2681     2.0801 C.ar    
  10 C10            4.0616     3.8471     2.7422 C.ar    
  11 C11            4.4770     5.1226     2.4059 C.ar    
  12 C12            3.8274     5.8239     1.4054 C.ar    
  13 C13            2.7642     5.2485     0.7351 C.ar    
  14 F14            2.1334     5.9309    -0.2456 F       
  15 I15            6.0930     5.9952     3.4140 I       
  16 F16            3.0856    -1.0100     0.7802 F       
  17 C17           -1.3639     2.3283     0.1207 C.2     
  18 O18           -1.9774     2.7284     1.0920 O.2     
  19 N19           -1.7546     2.6878    -1.1181 N.am    
  20 O20           -1.5919    -0.4870     0.2002 O.3     
  21 C21           -1.7145    -1.8322     0.3537 C.ar    
  22 C22           -1.8544    -2.6482    -0.7595 C.ar    
  23 C23           -1.9781    -4.0187    -0.5985 C.ar    
  24 C24           -1.9606    -4.5791     0.6760 C.ar    
  25 C25           -1.8225    -3.7576     1.7844 C.ar    
  26 C26           -1.6940    -2.3909     1.6234 C.ar    
  27 O27           -2.0723    -5.9241     0.8464 O.3     
  28 C28           -2.6391    -6.6858    -0.2223 C.3     
  29 C29           -1.9397    -6.2968    -1.5325 C.3     
  30 N30           -2.1237    -4.8477    -1.7220 N.am    
  31 S31           -2.4894    -4.2181    -3.2093 S.o2    
  32 N32           -1.0550    -3.8774    -3.9635 N.am    
  33 O33           -3.0937    -5.2681    -3.9520 O.2     
  34 O34           -3.1242    -2.9692    -2.9714 O.2     
  35 H35            0.6275    -1.8306     0.5144 H       
  36 H36            3.1725     1.5918     0.6975 H       
  37 H37            0.6342     3.9413    -0.0821 H       
  38 H38            2.6724     2.2721     2.3441 H       
  39 H39            4.5707     3.3028     3.5238 H       
  40 H40            4.1539     6.8200     1.1453 H       
  41 H41           -1.2654     2.3688    -1.8926 H       
  42 H42           -2.5249     3.2655    -1.2352 H       
  43 H43           -1.8673    -2.2161    -1.7492 H       
  44 H44           -1.8112    -4.1869     2.7753 H       
  45 H45           -1.5818    -1.7553     2.4892 H       
  46 H46           -2.4920    -7.7488    -0.0313 H       
  47 H47           -3.7048    -6.4704    -0.2992 H       
  48 H48           -0.8768    -6.5292    -1.4676 H       
  49 H49           -2.3874    -6.8385    -2.3657 H       
  50 H50           -0.2152    -4.0584    -3.5130 H       
  51 H51           -1.0545    -3.4968    -4.8557 H       
@<TRIPOS>BOND
   1    1    2 ar
   2    1    6 ar
   3    1   17 1
   4    2    3 ar
   5    2   20 1
   6    3    4 ar
   7    3   35 1
   8    4    5 ar
   9    4   16 1
  10    5    6 ar
  11    5   36 1
  12    6    7 1
  13    7    8 1
  14    7   37 1
  15    8    9 ar
  16    8   13 ar
  17    9   10 ar
  18    9   38 1
  19   10   11 ar
  20   10   39 1
  21   11   12 ar
  22   11   15 1
  23   12   13 ar
  24   12   40 1
  25   13   14 1
  26   17   18 2
  27   17   19 am
  28   19   41 1
  29   19   42 1
  30   20   21 1
  31   21   22 ar
  32   21   26 ar
  33   22   23 ar
  34   22   43 1
  35   23   30 1
  36   23   24 ar
  37   24   25 ar
  38   24   27 1
  39   25   26 ar
  40   25   44 1
  41   26   45 1
  42   27   28 1
  43   28   29 1
  44   28   46 1
  45   28   47 1
  46   29   30 1
  47   29   48 1
  48   29   49 1
  49   30   31 am
  50   31   32 am
  51   31   33 2
  52   31   34 2
  53   32   50 1
  54   32   51 1

#	End of record

