#	Name: ASD01028532
#	Creating user name:	WinNT
#	Creation time:	15. 06. 2019 18:57

#	Modifying user name:	WinNT
#	Modification time:	15. 06. 2019 18:57

#	Program:	/corina/corina34_cracker 3.40 0067  02.08.2006

@<TRIPOS>MOLECULE
ASD01028532
  41   45    0    0    0
SMALL
NO_CHARGES


@<TRIPOS>ATOM
   1 N1            -0.0169     1.3921     0.0097 N.2     
   2 N2             0.0021    -0.0041     0.0020 N.pl3   
   3 C3             1.1072     2.0742     0.0026 C.2     
   4 C4             2.3534     1.4122    -0.0133 C.2     
   5 C5             2.4037     0.0541    -0.0211 C.2     
   6 C6             1.2007    -0.6771    -0.0130 C.2     
   7 N7             0.9143    -1.9688    -0.0171 N.2     
   8 N8            -0.3640    -2.1208    -0.0052 N.2     
   9 C9            -0.9586    -0.9538     0.0054 C.2     
  10 C10           -2.4463    -0.7138     0.0208 C.3     
  11 C11            1.0649     3.5569     0.0110 C.ar    
  12 C12           -2.9285    -0.6402     1.4467 C.ar    
  13 C13           -2.9548     0.5619     2.0859 C.ar    
  14 C14           -3.3468    -1.8020     2.0918 C.ar    
  15 C15           -3.7879    -1.7708     3.3790 C.ar    
  16 C16           -3.8245    -0.5498     4.0743 C.ar    
  17 C17           -3.4038     0.6316     3.4142 C.ar    
  18 N18           -4.2523    -0.4884     5.3394 N.ar    
  19 C19           -4.2880     0.6477     5.9923 C.ar    
  20 C20           -3.8841     1.8445     5.4041 C.ar    
  21 C21           -3.4411     1.8536     4.1122 C.ar    
  22 C22           -0.1604     4.2206     0.0263 C.ar    
  23 C23           -0.1960     5.6020     0.0345 C.ar    
  24 C24            0.9859     6.3279     0.0271 C.ar    
  25 C25            2.2072     5.6707     0.0119 C.ar    
  26 C26            2.2504     4.2894     0.0094 C.ar    
  27 F27           -1.3834     6.2462     0.0493 F       
  28 F28            0.9474     7.6783     0.0343 F       
  29 F29            3.3560     6.3817     0.0048 F       
  30 H30            3.2685     1.9857    -0.0197 H       
  31 H31            3.3546    -0.4578    -0.0329 H       
  32 H32           -2.6682     0.2250    -0.4867 H       
  33 H33           -2.9517    -1.5323    -0.4918 H       
  34 H34           -2.6319     1.4564     1.5741 H       
  35 H35           -3.3209    -2.7427     1.5617 H       
  36 H36           -4.1089    -2.6807     3.8642 H       
  37 H37           -4.6401     0.6563     7.0132 H       
  38 H38           -3.9254     2.7648     5.9678 H       
  39 H39           -3.1239     2.7720     3.6407 H       
  40 H40           -1.0810     3.6560     0.0313 H       
  41 H41            3.2018     3.7783    -0.0024 H       
@<TRIPOS>BOND
   1    1    2 1
   2    1    3 2
   3    2    6 1
   4    2    9 1
   5    3    4 1
   6    3   11 1
   7    4    5 2
   8    4   30 1
   9    5    6 1
  10    5   31 1
  11    6    7 2
  12    7    8 1
  13    8    9 2
  14    9   10 1
  15   10   12 1
  16   10   32 1
  17   10   33 1
  18   11   22 ar
  19   11   26 ar
  20   12   13 ar
  21   12   14 ar
  22   13   17 ar
  23   13   34 1
  24   14   15 ar
  25   14   35 1
  26   15   16 ar
  27   15   36 1
  28   16   17 ar
  29   16   18 ar
  30   17   21 ar
  31   18   19 ar
  32   19   20 ar
  33   19   37 1
  34   20   21 ar
  35   20   38 1
  36   21   39 1
  37   22   23 ar
  38   22   40 1
  39   23   24 ar
  40   23   27 1
  41   24   25 ar
  42   24   28 1
  43   25   26 ar
  44   25   29 1
  45   26   41 1

#	End of record

