#	Name: ASD01916078
#	Creating user name:	WinNT
#	Creation time:	15. 06. 2019 20:06

#	Modifying user name:	WinNT
#	Modification time:	15. 06. 2019 20:06

#	Program:	/corina/corina34_cracker 3.40 0067  02.08.2006

@<TRIPOS>MOLECULE
ASD01916078
  44   47    0    0    0
SMALL
NO_CHARGES


@<TRIPOS>ATOM
   1 C1            -0.0169     1.3974     0.0097 C.ar    
   2 C2             0.0021    -0.0041     0.0020 C.ar    
   3 C3            -1.2070    -0.6758     0.0100 C.ar    
   4 C4            -2.3852     0.0496     0.0252 C.ar    
   5 C5            -3.7040    -0.6796     0.0344 C.3     
   6 C6             1.2059     2.1425     0.0021 C.1     
   7 C7             2.2084     2.7534    -0.0042 C.1     
   8 C8             3.4313     3.4985    -0.0119 C.ar    
   9 C9             3.4015     4.8957    -0.0041 C.ar    
  10 C10            5.8332     3.5545    -0.0288 C.ar    
  11 C11            4.5823     5.6075    -0.0116 C.ar    
  12 N12           -2.3736     1.3687     0.0322 N.ar    
  13 C13           -1.2496     2.0547     0.0192 C.ar    
  14 C14            4.6593     2.8315    -0.0214 C.ar    
  15 C15            5.7971     4.9402    -0.0273 C.ar    
  16 C16           -3.6017    -1.9640    -0.7560 C.2     
  17 N17           -3.5077    -3.0135     0.0752 N.am    
  18 C18           -3.5527    -2.5994     1.4823 C.3     
  19 C19           -4.0589    -1.1310     1.4656 C.3     
  20 H20           -4.4913    -0.0448    -0.3721 H       
  21 C21           -4.6351    -3.4172     2.2104 C.3     
  22 C22           -5.7570    -2.4311     2.5931 C.3     
  23 C23           -5.5942    -1.2617     1.5905 C.3     
  24 H24           -3.6068    -0.5078     2.2372 H       
  25 H25           -2.5764    -2.6854     1.9595 H       
  26 C26           -3.3762    -4.4036    -0.3684 C.3     
  27 O27           -3.6047    -2.0358    -1.9666 O.2     
  28 F28            6.9507     5.6432    -0.0341 F       
  29 H29            0.9365    -0.5454    -0.0102 H       
  30 H30           -1.2312    -1.7555     0.0041 H       
  31 H31            2.4556     5.4168     0.0074 H       
  32 H32            6.7828     3.0402    -0.0411 H       
  33 H33            4.5606     6.6873    -0.0056 H       
  34 H34           -1.2809     3.1343     0.0255 H       
  35 H35            4.6887     1.7519    -0.0226 H       
  36 H36           -5.0273    -4.1892     1.5483 H       
  37 H37           -4.2171    -3.8728     3.1081 H       
  38 H38           -6.7337    -2.9005     2.4762 H       
  39 H39           -5.6223    -2.0783     3.6156 H       
  40 H40           -6.0286    -0.3459     1.9912 H       
  41 H41           -6.0400    -1.5131     0.6281 H       
  42 H42           -3.3676    -4.4381    -1.4578 H       
  43 H43           -2.4455    -4.8210     0.0157 H       
  44 H44           -4.2178    -4.9858     0.0069 H       
@<TRIPOS>BOND
   1    1    2 ar
   2    1    6 1
   3    1   13 ar
   4    2    3 ar
   5    2   29 1
   6    3    4 ar
   7    3   30 1
   8    4   12 ar
   9    4    5 1
  10    5   16 1
  11    5   19 1
  12    5   20 1
  13    6    7 3
  14    7    8 1
  15    8    9 ar
  16    8   14 ar
  17    9   11 ar
  18    9   31 1
  19   10   15 ar
  20   10   14 ar
  21   10   32 1
  22   11   15 ar
  23   11   33 1
  24   12   13 ar
  25   13   34 1
  26   14   35 1
  27   15   28 1
  28   16   17 am
  29   16   27 2
  30   17   18 1
  31   17   26 1
  32   18   19 1
  33   18   21 1
  34   18   25 1
  35   19   24 1
  36   19   23 1
  37   21   22 1
  38   21   36 1
  39   21   37 1
  40   22   23 1
  41   22   38 1
  42   22   39 1
  43   23   40 1
  44   23   41 1
  45   26   42 1
  46   26   43 1
  47   26   44 1

#	End of record

