#	Name: ASD00120032
#	Creating user name:	WinNT
#	Creation time:	15. 06. 2019 18:31

#	Modifying user name:	WinNT
#	Modification time:	15. 06. 2019 18:31

#	Program:	/corina/corina34_cracker 3.40 0067  02.08.2006

@<TRIPOS>MOLECULE
ASD00120032
  54   56    0    0    0
SMALL
NO_CHARGES


@<TRIPOS>ATOM
   1 O1             0.2026     1.3293    -0.0772 O.3     
   2 O2            -0.2269    -0.0212    -2.4403 O.3     
   3 O3            -0.3106    -2.7676    -2.4503 O.3     
   4 O4             0.0711     2.7894     5.8005 O.3     
   5 O5             1.9240     1.1086     6.2737 O.2     
   6 O6             4.5924     0.0868     2.0060 O.2     
   7 N7             3.8239    -1.5307     3.3156 N.am    
   8 C8             2.5423    -1.5571     2.6065 C.3     
   9 C9             1.9151    -2.9266     2.7708 C.3     
  10 C10            0.4425    -2.9081     2.3700 C.3     
  11 C11            1.6516    -0.4611     3.1556 C.2     
  12 C12            0.2742    -2.1408     1.0837 C.ar    
  13 C13            0.3303    -0.7507     1.0953 C.ar    
  14 C14            0.5824    -0.0217     2.3738 C.2     
  15 C15            0.1584    -0.0289    -0.0896 C.ar    
  16 C16            0.0627    -2.8125    -0.1017 C.ar    
  17 C17            1.9655     0.0075     4.3756 C.2     
  18 C18           -0.2637     1.0156     2.6699 C.2     
  19 C19           -0.0584    -0.7117    -1.2797 C.ar    
  20 C20           -0.1034    -2.1013    -1.2839 C.ar    
  21 C21            1.4237     0.9832     5.1639 C.2     
  22 C22            4.7869    -0.6679     2.9353 C.2     
  23 C23           -0.3611     1.8408     3.7295 C.2     
  24 C24            0.3786     1.8524     4.8708 C.2     
  25 C25            6.1053    -0.6408     3.6648 C.3     
  26 C26            1.4908     1.9376    -0.1891 C.3     
  27 C27            0.9268     0.1523    -3.2654 C.3     
  28 C28           -0.3453    -4.1947    -2.3850 C.3     
  29 C29           -1.0038     3.6796     5.4935 C.3     
  30 H30            2.7190    -1.3721     1.5469 H       
  31 H31            2.4476    -3.6413     2.1433 H       
  32 H32            1.9983    -3.2353     3.8128 H       
  33 H33            0.0919    -3.9307     2.2306 H       
  34 H34           -0.1412    -2.4297     3.1565 H       
  35 H35            3.9795    -2.1343     4.0589 H       
  36 H36            0.0260    -3.8918    -0.1114 H       
  37 H37            2.8159    -0.4861     4.8223 H       
  38 H38           -0.9969     1.2095     1.9010 H       
  39 H39           -1.1308     2.5955     3.6644 H       
  40 H40            6.0494     0.0691     4.4900 H       
  41 H41            6.3253    -1.6346     4.0546 H       
  42 H42            6.8948    -0.3373     2.9772 H       
  43 H43            2.0825     1.7006     0.6951 H       
  44 H44            1.9961     1.5576    -1.0770 H       
  45 H45            1.3763     3.0184    -0.2708 H       
  46 H46            0.6758     0.7925    -4.1111 H       
  47 H47            1.7236     0.6152    -2.6832 H       
  48 H48            1.2611    -0.8185    -3.6313 H       
  49 H49           -1.1510    -4.5085    -1.7214 H       
  50 H50           -0.5172    -4.5999    -3.3821 H       
  51 H51            0.6059    -4.5640    -2.0017 H       
  52 H52           -0.7680     4.2344     4.5854 H       
  53 H53           -1.9183     3.1063     5.3418 H       
  54 H54           -1.1449     4.3772     6.3191 H       
@<TRIPOS>BOND
   1    1   15 1
   2    1   26 1
   3    2   19 1
   4    2   27 1
   5    3   20 1
   6    3   28 1
   7    4   24 1
   8    4   29 1
   9    5   21 2
  10    6   22 2
  11    7   22 am
  12    7   35 1
  13    7    8 1
  14    8    9 1
  15    8   11 1
  16    8   30 1
  17    9   10 1
  18    9   31 1
  19    9   32 1
  20   10   12 1
  21   10   33 1
  22   10   34 1
  23   11   14 1
  24   11   17 2
  25   12   13 ar
  26   12   16 ar
  27   13   14 1
  28   13   15 ar
  29   14   18 2
  30   15   19 ar
  31   16   20 ar
  32   16   36 1
  33   17   21 1
  34   17   37 1
  35   18   23 1
  36   18   38 1
  37   19   20 ar
  38   21   24 1
  39   22   25 1
  40   23   24 2
  41   23   39 1
  42   25   40 1
  43   25   41 1
  44   25   42 1
  45   26   43 1
  46   26   44 1
  47   26   45 1
  48   27   46 1
  49   27   47 1
  50   27   48 1
  51   28   49 1
  52   28   50 1
  53   28   51 1
  54   29   52 1
  55   29   53 1
  56   29   54 1

#	End of record

