#	Name: ASD01209110
#	Creating user name:	WinNT
#	Creation time:	15. 06. 2019 19:11

#	Modifying user name:	WinNT
#	Modification time:	15. 06. 2019 19:11

#	Program:	/corina/corina34_cracker 3.40 0067  02.08.2006

@<TRIPOS>MOLECULE
ASD01209110
  78   80    0    0    0
SMALL
NO_CHARGES


@<TRIPOS>ATOM
   1 C1             0.2448     1.7804    -0.7020 C.ar    
   2 C2             0.1348     0.4254    -0.9777 C.ar    
   3 C3            -1.1163    -0.1634    -1.0962 C.ar    
   4 C4            -2.2610     0.6005    -0.9395 C.ar    
   5 C5            -2.1548     1.9641    -0.6620 C.ar    
   6 C6            -0.8949     2.5508    -0.5386 C.ar    
   7 O7             1.4724     2.3519    -0.5866 O.3     
   8 C8             1.5147     3.7709    -0.4231 C.3     
   9 C9             2.8607     4.3017    -0.9206 C.3     
  10 O10            3.9085     3.7943    -0.0919 O.3     
  11 O11           -1.2185    -1.4912    -1.3668 O.3     
  12 C12           -1.7027    -1.8592    -2.5819 C.ar    
  13 C13           -1.9698    -0.8960    -3.5444 C.ar    
  14 C14           -1.9256    -3.1993    -2.8644 C.ar    
  15 C15           -2.4179    -3.5707    -4.1005 C.ar    
  16 C16           -2.6882    -2.6085    -5.0560 C.ar    
  17 C17           -2.4620    -1.2728    -4.7789 C.ar    
  18 S18           -3.3156    -3.0857    -6.6318 S.o2    
  19 O19           -2.9002    -2.0440    -7.5045 O.2     
  20 O20           -2.8496    -4.4168    -6.8060 O.2     
  21 C21           -5.1178    -3.0639    -6.4270 C.3     
  22 C22           -3.3735     2.7835    -0.4944 C.2     
  23 N23           -4.5896     2.2139    -0.6095 N.am    
  24 O24           -3.2791     3.9708    -0.2529 O.2     
  25 C25           -5.7284     2.9795    -0.4529 C.2     
  26 S26           -5.7454     4.7117    -0.1010 S.3     
  27 C27           -7.5602     4.8706    -0.0677 C.3     
  28 C28           -8.0444     3.4412    -0.3578 C.3     
  29 N29           -6.9301     2.5394    -0.5469 N.2     
  30 C30           -8.8973     2.9529     0.8148 C.3     
  31 P31           -9.5984     1.3178     0.4168 P.3     
  32 O32          -10.3416     1.3974    -0.8607 O.2     
  33 C33            1.3447     4.1190     1.0570 C.3     
  34 O34           -8.4081     0.2426     0.2790 O.3     
  35 C35           -8.6178    -1.0973    -0.1711 C.3     
  36 C36           -7.8921    -1.3079    -1.5015 C.3     
  37 C37           -8.0702    -2.0765     0.8692 C.3     
  38 O38          -10.5995     0.8625     1.5926 O.3     
  39 C39          -11.3600    -0.3463     1.5427 C.3     
  40 C40          -11.1083    -1.1600     2.8137 C.3     
  41 C41          -12.8487    -0.0084     1.4399 C.3     
  42 H42            1.0254    -0.1730    -1.1008 H       
  43 H43           -3.2343     0.1417    -1.0322 H       
  44 H44           -0.8082     3.6057    -0.3239 H       
  45 H45            0.7092     4.2270    -0.9985 H       
  46 H46            3.0215     3.9776    -1.9488 H       
  47 H47            2.8596     5.3909    -0.8788 H       
  48 H48            4.7922     4.0906    -0.3496 H       
  49 H49           -1.7933     0.1473    -3.3284 H       
  50 H50           -1.7140    -3.9513    -2.1187 H       
  51 H51           -2.5916    -4.6136    -4.3209 H       
  52 H52           -2.6742    -0.5232    -5.5268 H       
  53 H53           -5.4396    -2.0606    -6.1478 H       
  54 H54           -5.5936    -3.3501    -7.3650 H       
  55 H55           -5.4032    -3.7678    -5.6453 H       
  56 H56           -4.6650     1.2662    -0.8023 H       
  57 H57           -7.8996     5.1998     0.9144 H       
  58 H58           -7.9005     5.5568    -0.8433 H       
  59 H59           -8.6530     3.4467    -1.2621 H       
  60 H60           -8.2769     2.8746     1.7075 H       
  61 H61           -9.7062     3.6609     0.9954 H       
  62 H62            2.1503     3.6629     1.6324 H       
  63 H63            1.3770     5.2014     1.1817 H       
  64 H64            0.3858     3.7409     1.4114 H       
  65 H65           -9.6851    -1.2718    -0.3079 H       
  66 H66           -6.8248    -1.1335    -1.3647 H       
  67 H67           -8.0521    -2.3300    -1.8448 H       
  68 H68           -8.2822    -0.6104    -2.2426 H       
  69 H69           -8.6480    -1.9897     1.7894 H       
  70 H70           -8.1473    -3.0941     0.4863 H       
  71 H71           -7.0252    -1.8432     1.0730 H       
  72 H72          -11.0588    -0.9293     0.6724 H       
  73 H73          -10.0361    -1.3057     2.9454 H       
  74 H74          -11.5105    -0.6244     3.6736 H       
  75 H75          -11.5989    -2.1295     2.7275 H       
  76 H76          -13.0280     0.5713     0.5344 H       
  77 H77          -13.4287    -0.9304     1.4019 H       
  78 H78          -13.1498     0.5747     2.3102 H       
@<TRIPOS>BOND
   1    1    2 ar
   2    1    7 1
   3    1    6 ar
   4    2    3 ar
   5    2   42 1
   6    3    4 ar
   7    3   11 1
   8    4    5 ar
   9    4   43 1
  10    5    6 ar
  11    5   22 1
  12    6   44 1
  13    7    8 1
  14    8    9 1
  15    8   33 1
  16    8   45 1
  17    9   10 1
  18    9   46 1
  19    9   47 1
  20   10   48 1
  21   11   12 1
  22   12   13 ar
  23   12   14 ar
  24   13   17 ar
  25   13   49 1
  26   14   15 ar
  27   14   50 1
  28   15   16 ar
  29   15   51 1
  30   16   17 ar
  31   16   18 1
  32   17   52 1
  33   18   19 2
  34   18   20 2
  35   18   21 1
  36   21   53 1
  37   21   54 1
  38   21   55 1
  39   22   23 am
  40   22   24 2
  41   23   25 1
  42   23   56 1
  43   25   26 1
  44   25   29 2
  45   26   27 1
  46   27   28 1
  47   27   57 1
  48   27   58 1
  49   28   29 1
  50   28   30 1
  51   28   59 1
  52   30   31 1
  53   30   60 1
  54   30   61 1
  55   31   32 2
  56   31   34 1
  57   31   38 1
  58   33   62 1
  59   33   63 1
  60   33   64 1
  61   34   35 1
  62   35   36 1
  63   35   37 1
  64   35   65 1
  65   36   66 1
  66   36   67 1
  67   36   68 1
  68   37   69 1
  69   37   70 1
  70   37   71 1
  71   38   39 1
  72   39   40 1
  73   39   41 1
  74   39   72 1
  75   40   73 1
  76   40   74 1
  77   40   75 1
  78   41   76 1
  79   41   77 1
  80   41   78 1

#	End of record

