#	Name: ASD03240659
#	Creating user name:	WinNT
#	Creation time:	15. 06. 2019 20:35

#	Modifying user name:	WinNT
#	Modification time:	15. 06. 2019 20:35

#	Program:	/corina/corina34_cracker 3.40 0067  02.08.2006

@<TRIPOS>MOLECULE
ASD03240659
  60   66    0    0    0
SMALL
NO_CHARGES


@<TRIPOS>ATOM
   1 C1            -0.0166     1.3755     0.0096 C.ar    
   2 C2             0.0021    -0.0041     0.0020 C.ar    
   3 N3             1.1422    -0.6683    -0.0058 N.ar    
   4 C4             2.3145    -0.0481    -0.0058 C.ar    
   5 C5             2.3702     1.3442    -0.0124 C.ar    
   6 C6             1.1860     2.0698     0.0018 C.ar    
   7 N7             3.4820    -0.8058     0.0220 N.pl3   
   8 C8             4.3592    -0.7194     1.0997 C.ar    
   9 C9             4.9952     0.4890     1.4036 C.ar    
  10 C10            4.7637     1.6835     0.5620 C.2     
  11 N11            3.5939     2.0276    -0.0512 N.pl3   
  12 C12            4.6051    -1.8391     1.8830 C.ar    
  13 C13            5.4649    -1.7538     2.9614 C.ar    
  14 C14            6.0859    -0.5557     3.2701 C.ar    
  15 C15            5.8562     0.5653     2.4982 C.ar    
  16 N16            5.6751     2.5941     0.2849 N.2     
  17 C17            5.1447     3.5398    -0.5057 C.2     
  18 C18            3.8224     3.2038    -0.7367 C.2     
  19 C19            2.8494     3.9539    -1.5543 C.ar    
  20 C20            2.7504     5.3418    -1.4298 C.ar    
  21 C21            2.0271     3.2800    -2.4607 C.ar    
  22 C22            1.1204     3.9876    -3.2219 C.ar    
  23 C23            1.0244     5.3618    -3.0898 C.ar    
  24 C24            1.8391     6.0364    -2.1976 C.ar    
  25 C25            5.8486     4.7307    -1.0356 C.ar    
  26 C26            0.0319     6.1280    -3.9258 C.3     
  27 C27            6.8175     5.3714    -0.2646 C.ar    
  28 N28           -1.0270     5.2737    -4.4798 N.3     
  29 C29           -0.4972     7.3999    -3.2424 C.3     
  30 C30           -0.4007     8.0837    -4.6165 C.3     
  31 C31            0.6864     7.0533    -4.9652 C.3     
  32 C32            7.4710     6.4819    -0.7650 C.ar    
  33 C33            7.1639     6.9572    -2.0297 C.ar    
  34 C34            6.2031     6.3242    -2.7976 C.ar    
  35 C35            5.5484     5.2118    -2.3102 C.ar    
  36 F36            8.4100     7.1049    -0.0198 F       
  37 H37           -0.9556     1.9091     0.0170 H       
  38 H38           -0.9306    -0.5486     0.0028 H       
  39 H39            1.2002     3.1497     0.0071 H       
  40 H40            3.6863    -1.4002    -0.7168 H       
  41 H41            4.1238    -2.7773     1.6495 H       
  42 H42            5.6534    -2.6275     3.5676 H       
  43 H43            6.7525    -0.4979     4.1179 H       
  44 H44            6.3420     1.4988     2.7410 H       
  45 H45            3.3856     5.8696    -0.7339 H       
  46 H46            2.1014     2.2077    -2.5653 H       
  47 H47            0.4840     3.4681    -3.9229 H       
  48 H48            1.7588     7.1090    -2.0997 H       
  49 H49            7.0567     5.0012     0.7213 H       
  50 H50           -0.6359     4.4652    -4.9395 H       
  51 H51           -1.6829     5.0004    -3.7635 H       
  52 H52           -1.5182     7.3046    -2.8730 H       
  53 H53            0.1858     7.8131    -2.5002 H       
  54 H54           -1.3045     7.9852    -5.2177 H       
  55 H55           -0.0320     9.1084    -4.5694 H       
  56 H56            1.6929     7.3717    -4.6940 H       
  57 H57            0.6208     6.6781    -5.9865 H       
  58 H58            7.6762     7.8254    -2.4172 H       
  59 H59            5.9678     6.6991    -3.7827 H       
  60 H60            4.7989     4.7188    -2.9115 H       
@<TRIPOS>BOND
   1    1    2 ar
   2    1    6 ar
   3    1   37 1
   4    2    3 ar
   5    2   38 1
   6    3    4 ar
   7    4    5 ar
   8    4    7 1
   9    5    6 ar
  10    5   11 1
  11    6   39 1
  12    7    8 1
  13    7   40 1
  14    8    9 ar
  15    8   12 ar
  16    9   10 1
  17    9   15 ar
  18   10   11 1
  19   10   16 2
  20   11   18 1
  21   12   13 ar
  22   12   41 1
  23   13   14 ar
  24   13   42 1
  25   14   15 ar
  26   14   43 1
  27   15   44 1
  28   16   17 1
  29   17   18 2
  30   17   25 1
  31   18   19 1
  32   19   20 ar
  33   19   21 ar
  34   20   24 ar
  35   20   45 1
  36   21   22 ar
  37   21   46 1
  38   22   23 ar
  39   22   47 1
  40   23   24 ar
  41   23   26 1
  42   24   48 1
  43   25   27 ar
  44   25   35 ar
  45   26   29 1
  46   26   28 1
  47   26   31 1
  48   27   32 ar
  49   27   49 1
  50   28   50 1
  51   28   51 1
  52   29   30 1
  53   29   52 1
  54   29   53 1
  55   30   31 1
  56   30   54 1
  57   30   55 1
  58   31   56 1
  59   31   57 1
  60   32   33 ar
  61   32   36 1
  62   33   34 ar
  63   33   58 1
  64   34   35 ar
  65   34   59 1
  66   35   60 1

#	End of record

