#	Name: ASD01001164
#	Creating user name:	WinNT
#	Creation time:	15. 06. 2019 18:55

#	Modifying user name:	WinNT
#	Modification time:	15. 06. 2019 18:55

#	Program:	/corina/corina34_cracker 3.40 0067  02.08.2006

@<TRIPOS>MOLECULE
ASD01001164
  43   46    0    0    0
SMALL
NO_CHARGES


@<TRIPOS>ATOM
   1 C1            -0.0184     1.5044     0.0103 C.3     
   2 C2             0.0021    -0.0041     0.0020 C.ar    
   3 C3             1.4090     2.0457    -0.0004 C.3     
   4 C4             1.1164    -0.7131     0.4217 C.ar    
   5 C5            -1.1211    -0.6851    -0.4344 C.ar    
   6 C6             2.2041     1.3924     1.1335 C.3     
   7 C7             1.1016    -2.1034     0.4085 C.ar    
   8 N8             2.2726    -0.0497     0.8569 N.pl3   
   9 C9             3.5951     1.9702     1.1811 C.ar    
  10 C10           -0.0207    -2.7801    -0.0256 C.ar    
  11 C11           -1.1350    -2.0710    -0.4485 C.ar    
  12 C12            3.9060     2.9483     2.1072 C.ar    
  13 C13            4.5617     1.5182     0.3023 C.ar    
  14 C14            5.1819     3.4783     2.1508 C.ar    
  15 C15            5.8377     2.0482     0.3460 C.ar    
  16 C16            6.1471     3.0300     1.2686 C.ar    
  17 O17           -0.6989     1.9455     1.1878 O.3     
  18 C18            1.4080     3.5634     0.1625 C.3     
  19 C19           -0.7834     3.3638     1.3288 C.3     
  20 C20            0.6314     3.9429     1.4267 C.3     
  21 O21           -2.2415    -2.7356    -0.8770 O.3     
  22 C22           -2.1860    -4.1634    -0.8647 C.3     
  23 F23           -1.9617    -4.6102     0.4419 F       
  24 F24           -3.3984    -4.6813    -1.3329 F       
  25 F25           -1.1437    -4.5968    -1.6911 F       
  26 H26           -0.5498     1.8649    -0.8705 H       
  27 H27            1.8778     1.8019    -0.9538 H       
  28 H28           -1.9897    -0.1348    -0.7648 H       
  29 H29            1.6995     1.5628     2.0845 H       
  30 H30            1.9697    -2.6549     0.7382 H       
  31 H31            3.1044    -0.5348     0.9739 H       
  32 H32           -0.0309    -3.8600    -0.0358 H       
  33 H33            3.1519     3.2985     2.7964 H       
  34 H34            4.3202     0.7507    -0.4180 H       
  35 H35            5.4246     4.2429     2.8739 H       
  36 H36            6.5930     1.6948    -0.3403 H       
  37 H37            7.1440     3.4441     1.3027 H       
  38 H38            2.4345     3.9202     0.2461 H       
  39 H39            0.9343     4.0214    -0.7058 H       
  40 H40           -1.2911     3.7867     0.4619 H       
  41 H41           -1.3404     3.6076     2.2335 H       
  42 H42            1.1346     3.5320     2.3019 H       
  43 H43            0.5769     5.0284     1.5100 H       
@<TRIPOS>BOND
   1    1    2 1
   2    1    3 1
   3    1   17 1
   4    1   26 1
   5    2    4 ar
   6    2    5 ar
   7    3    6 1
   8    3   18 1
   9    3   27 1
  10    4    7 ar
  11    4    8 1
  12    5   11 ar
  13    5   28 1
  14    6    8 1
  15    6    9 1
  16    6   29 1
  17    7   10 ar
  18    7   30 1
  19    8   31 1
  20    9   12 ar
  21    9   13 ar
  22   10   11 ar
  23   10   32 1
  24   11   21 1
  25   12   14 ar
  26   12   33 1
  27   13   15 ar
  28   13   34 1
  29   14   16 ar
  30   14   35 1
  31   15   16 ar
  32   15   36 1
  33   16   37 1
  34   17   19 1
  35   18   20 1
  36   18   38 1
  37   18   39 1
  38   19   20 1
  39   19   40 1
  40   19   41 1
  41   20   42 1
  42   20   43 1
  43   21   22 1
  44   22   23 1
  45   22   24 1
  46   22   25 1

#	End of record

