#	Name: ASD01881875
#	Creating user name:	WinNT
#	Creation time:	15. 06. 2019 19:43

#	Modifying user name:	WinNT
#	Modification time:	15. 06. 2019 19:43

#	Program:	/corina/corina34_cracker 3.40 0067  02.08.2006

@<TRIPOS>MOLECULE
ASD01881875
  45   47    0    0    0
SMALL
NO_CHARGES


@<TRIPOS>ATOM
   1 C1            -0.0184     1.5028     0.0103 C.2     
   2 N2             1.3935    -0.4748    -0.0138 N.3     
   3 C3             0.0021    -0.0041     0.0020 C.3     
   4 O4             1.0197     2.1211     0.0037 O.2     
   5 O5            -1.1898     2.1580     0.0194 O.3     
   6 C6             1.4526    -1.9426    -0.0222 C.3     
   7 C7             2.9144    -2.3941    -0.0386 C.3     
   8 O8             3.5492    -1.9972     1.1786 O.3     
   9 N9             8.8282    -3.1918     2.0204 N.pl3   
  10 N10            8.9191    -2.6035     3.2905 N.2     
  11 N11            7.7795    -2.1013     3.6122 N.2     
  12 C12            6.8822    -2.3063     2.6274 C.ar    
  13 C13            7.5327    -3.0045     1.5952 C.ar    
  14 C14            5.5300    -1.9685     2.4787 C.ar    
  15 C15            4.8610    -2.3239     1.3258 C.ar    
  16 C16            5.5192    -3.0153     0.3116 C.ar    
  17 C17            6.8369    -3.3526     0.4431 C.ar    
  18 C18            9.9024    -3.8671     1.2879 C.3     
  19 C19            9.9020    -5.3560     1.6400 C.3     
  20 C20           10.8790    -6.2605     0.8861 C.3     
  21 C21           11.1350    -5.9134     2.3540 C.3     
  22 Br22           4.6280    -1.0300     3.8505 Br      
  23 C23           -1.1335     3.6089     0.0270 C.3     
  24 C24           -2.5551     4.1744     0.0369 C.3     
  25 H25            1.8972    -0.0881    -0.7979 H       
  26 H26           -0.4983    -0.3791     0.8948 H       
  27 H27           -0.5153    -0.3696    -0.8850 H       
  28 H28            0.9623    -2.3311     0.8704 H       
  29 H29            0.9453    -2.3216    -0.9095 H       
  30 H30            2.9585    -3.4790    -0.1344 H       
  31 H31            3.4274    -1.9336    -0.8829 H       
  32 H32            4.9836    -3.2878    -0.5857 H       
  33 H33            7.3383    -3.8890    -0.3489 H       
  34 H34            9.7427    -3.7471     0.2164 H       
  35 H35           10.8615    -3.4288     1.5637 H       
  36 H36            8.9323    -5.7755     1.9079 H       
  37 H37           10.5522    -7.2751     0.6584 H       
  38 H38           11.5220    -5.7947     0.1393 H       
  39 H39           11.9465    -5.2194     2.5730 H       
  40 H40           10.9766    -6.6997     3.0921 H       
  41 H41           -0.6017     3.9472     0.9164 H       
  42 H42           -0.6102     3.9569    -0.8636 H       
  43 H43           -3.0869     3.8361    -0.8525 H       
  44 H44           -3.0784     3.8265     0.9275 H       
  45 H45           -2.5128     5.2636     0.0426 H       
@<TRIPOS>BOND
   1    1    3 1
   2    1    4 2
   3    1    5 1
   4    2    3 1
   5    2    6 1
   6    2   25 1
   7    3   26 1
   8    3   27 1
   9    5   23 1
  10    6    7 1
  11    6   28 1
  12    6   29 1
  13    7    8 1
  14    7   30 1
  15    7   31 1
  16    8   15 1
  17    9   10 1
  18    9   13 1
  19    9   18 1
  20   10   11 2
  21   11   12 1
  22   12   13 ar
  23   12   14 ar
  24   13   17 ar
  25   14   15 ar
  26   14   22 1
  27   15   16 ar
  28   16   17 ar
  29   16   32 1
  30   17   33 1
  31   18   19 1
  32   18   34 1
  33   18   35 1
  34   19   20 1
  35   19   21 1
  36   19   36 1
  37   20   21 1
  38   20   37 1
  39   20   38 1
  40   21   39 1
  41   21   40 1
  42   23   24 1
  43   23   41 1
  44   23   42 1
  45   24   43 1
  46   24   44 1
  47   24   45 1

#	End of record

