#	Name: ASD07300862
#	Creating user name:	WinNT
#	Creation time:	15. 06. 2019 21:10

#	Modifying user name:	WinNT
#	Modification time:	15. 06. 2019 21:10

#	Program:	/corina/corina34_cracker 3.40 0067  02.08.2006

@<TRIPOS>MOLECULE
ASD07300862
  51   54    0    0    0
SMALL
NO_CHARGES


@<TRIPOS>ATOM
   1 N1             0.5044     1.7734    -0.5599 N.am    
   2 C2             0.3763     0.4318    -0.4017 C.2     
   3 N3             1.3947    -0.3744    -0.3285 N.2     
   4 C4             2.6580     0.0709    -0.4058 C.2     
   5 C5             2.8905     1.4458    -0.5705 C.2     
   6 C6             1.7324     2.3357    -0.6501 C.2     
   7 N7             3.8801    -0.5266    -0.3610 N.pl3   
   8 N8             4.8592     0.4657    -0.4962 N.2     
   9 C9             4.2850     1.6309    -0.6202 C.2     
  10 O10            1.8680     3.5380    -0.7931 O.2     
  11 C11            4.1177    -1.8984    -0.2055 C.ar    
  12 C12            3.4177    -2.8252    -0.9662 C.ar    
  13 N13            3.6382    -4.1168    -0.8224 N.ar    
  14 C14            4.5227    -4.5790     0.0394 C.ar    
  15 C15            5.2589    -3.7181     0.8325 C.ar    
  16 C16            5.0638    -2.3523     0.7104 C.ar    
  17 C17           -1.0101    -0.1512    -0.3058 C.3     
  18 C18           -1.0888    -1.6265    -0.7327 C.3     
  19 C19           -2.0578    -1.8335     0.4433 C.3     
  20 C20           -1.3837    -0.6225     1.1095 C.3     
  21 C21           -1.7258    -1.8311    -2.0830 C.2     
  22 O22           -2.1176    -0.8760    -2.7196 O.2     
  23 N23           -1.8602    -3.0753    -2.5832 N.am    
  24 C24           -2.4795    -3.2742    -3.8959 C.3     
  25 C25           -1.4222    -3.1071    -4.9892 C.3     
  26 C26           -3.0644    -4.6610    -3.9705 C.2     
  27 C27           -4.0421    -5.0087    -5.0633 C.3     
  28 O28           -2.7496    -5.4938    -3.1546 O.2     
  29 C29            5.8466    -1.3818     1.5568 C.3     
  30 H30           -0.2873     2.3313    -0.6126 H       
  31 H31            4.7931     2.5762    -0.7410 H       
  32 H32            2.6850    -2.4845    -1.6827 H       
  33 H33            4.6741    -5.6447     0.1273 H       
  34 H34            5.9809    -4.1060     1.5358 H       
  35 H35           -1.7675     0.4791    -0.7717 H       
  36 H36           -0.1469    -2.1639    -0.6221 H       
  37 H37           -3.1026    -1.6633     0.1833 H       
  38 H38           -1.9009    -2.7699     0.9788 H       
  39 H39           -0.5224    -0.8854     1.7237 H       
  40 H40           -2.0825     0.0401     1.6201 H       
  41 H41           -1.5468    -3.8392    -2.0741 H       
  42 H42           -3.2704    -2.5381    -4.0398 H       
  43 H43           -0.6313    -3.8433    -4.8453 H       
  44 H44           -1.8830    -3.2551    -5.9659 H       
  45 H45           -0.9991    -2.1040    -4.9352 H       
  46 H46           -4.2022    -4.1373    -5.6983 H       
  47 H47           -3.6416    -5.8263    -5.6626 H       
  48 H48           -4.9897    -5.3138    -4.6195 H       
  49 H49            6.7168    -1.0341     1.0002 H       
  50 H50            5.2150    -0.5310     1.8124 H       
  51 H51            6.1742    -1.8785     2.4701 H       
@<TRIPOS>BOND
   1    1    2 1
   2    1    6 am
   3    1   30 1
   4    2    3 2
   5    2   17 1
   6    3    4 1
   7    4    5 2
   8    4    7 1
   9    5    6 1
  10    5    9 1
  11    6   10 2
  12    7    8 1
  13    7   11 1
  14    8    9 2
  15    9   31 1
  16   11   12 ar
  17   11   16 ar
  18   12   13 ar
  19   12   32 1
  20   13   14 ar
  21   14   15 ar
  22   14   33 1
  23   15   16 ar
  24   15   34 1
  25   16   29 1
  26   17   18 1
  27   17   20 1
  28   17   35 1
  29   18   19 1
  30   18   21 1
  31   18   36 1
  32   19   20 1
  33   19   37 1
  34   19   38 1
  35   20   39 1
  36   20   40 1
  37   21   22 2
  38   21   23 am
  39   23   24 1
  40   23   41 1
  41   24   25 1
  42   24   26 1
  43   24   42 1
  44   25   43 1
  45   25   44 1
  46   25   45 1
  47   26   27 1
  48   26   28 2
  49   27   46 1
  50   27   47 1
  51   27   48 1
  52   29   49 1
  53   29   50 1
  54   29   51 1

#	End of record

