#	Name: ASD03731649
#	Creating user name:	WinNT
#	Creation time:	15. 06. 2019 20:46

#	Modifying user name:	WinNT
#	Modification time:	15. 06. 2019 20:46

#	Program:	/corina/corina34_cracker 3.40 0067  02.08.2006

@<TRIPOS>MOLECULE
ASD03731649
  36   37    0    0    0
SMALL
NO_CHARGES


@<TRIPOS>ATOM
   1 C1            -0.1361     1.4672     0.0333 C.2     
   2 C2            -0.0851    -0.0063     0.0191 C.ar    
   3 C3             1.1401    -0.6649    -0.1384 C.ar    
   4 C4             1.1827    -2.0446    -0.1505 C.ar    
   5 C5             0.0129    -2.7784    -0.0068 C.ar    
   6 C6            -1.2079    -2.1270     0.1497 C.ar    
   7 C7            -1.2595    -0.7501     0.1688 C.ar    
   8 O8             0.8871     2.1123    -0.0920 O.2     
   9 N9            -1.3175     2.0992     0.1796 N.am    
  10 S10           -1.3748     3.7541     0.1955 S.o2    
  11 O11           -2.7500     4.0553     0.3893 O.2     
  12 O12           -0.3999     4.1293     1.1587 O.2     
  13 C13           -0.8450     4.2414    -1.4696 C.3     
  14 F14           -2.3431    -2.8464     0.2887 F       
  15 F15            2.2787     0.0486    -0.2788 F       
  16 O16            0.0593    -4.1350    -0.0193 O.3     
  17 C17           -0.1522    -4.7697    -1.2022 C.ar    
  18 C18           -0.0463    -6.1524    -1.2785 C.ar    
  19 C19           -0.2625    -6.7950    -2.4829 C.ar    
  20 C20           -0.5834    -6.0621    -3.6108 C.ar    
  21 C21           -0.6893    -4.6857    -3.5371 C.ar    
  22 C22           -0.4798    -4.0385    -2.3342 C.ar    
  23 C23           -1.0387    -3.8907    -4.7687 C.3     
  24 Cl24           0.3577    -7.0725     0.1371 Cl      
  25 H25            2.1273    -2.5539    -0.2724 H       
  26 H26           -2.2064    -0.2462     0.2951 H       
  27 H27           -2.1342     1.5847     0.2755 H       
  28 H28           -1.5273     3.8177    -2.2065 H       
  29 H29           -0.8530     5.3284    -1.5498 H       
  30 H30            0.1636     3.8709    -1.6529 H       
  31 H31           -0.1803    -7.8702    -2.5432 H       
  32 H32           -0.7513    -6.5659    -4.5513 H       
  33 H33           -0.5668    -2.9635    -2.2767 H       
  34 H34           -2.1215    -3.7879    -4.8397 H       
  35 H35           -0.5834    -2.9024    -4.7045 H       
  36 H36           -0.6639    -4.4066    -5.6526 H       
@<TRIPOS>BOND
   1    1    2 1
   2    1    8 2
   3    1    9 am
   4    2    3 ar
   5    2    7 ar
   6    3    4 ar
   7    3   15 1
   8    4    5 ar
   9    4   25 1
  10    5    6 ar
  11    5   16 1
  12    6    7 ar
  13    6   14 1
  14    7   26 1
  15    9   10 am
  16    9   27 1
  17   10   11 2
  18   10   12 2
  19   10   13 1
  20   13   28 1
  21   13   29 1
  22   13   30 1
  23   16   17 1
  24   17   18 ar
  25   17   22 ar
  26   18   19 ar
  27   18   24 1
  28   19   20 ar
  29   19   31 1
  30   20   21 ar
  31   20   32 1
  32   21   22 ar
  33   21   23 1
  34   22   33 1
  35   23   34 1
  36   23   35 1
  37   23   36 1

#	End of record

