#	Name: ASD01917869
#	Creating user name:	WinNT
#	Creation time:	15. 06. 2019 20:10

#	Modifying user name:	WinNT
#	Modification time:	15. 06. 2019 20:10

#	Program:	/corina/corina34_cracker 3.40 0067  02.08.2006

@<TRIPOS>MOLECULE
ASD01917869
  43   46    0    0    0
SMALL
NO_CHARGES


@<TRIPOS>ATOM
   1 C1             0.0028     1.2872    -0.0718 C.2     
   2 C2            -0.0059    -0.0589    -0.0615 C.2     
   3 C3            -1.2867    -0.8781    -0.0176 C.3     
   4 C4            -2.4307     0.0066     0.4835 C.3     
   5 N5            -2.3978     1.2892    -0.2355 N.am    
   6 C6            -1.2289     2.1622    -0.0297 C.3     
   7 C7            -3.4039     1.6536    -1.0549 C.2     
   8 O8            -4.3060     0.8729    -1.2955 O.2     
   9 S9             1.6708     1.8391    -0.1339 S.3     
  10 C10            2.2144     0.2186    -0.1361 C.2     
  11 N11            1.2107    -0.5853    -0.0952 N.2     
  12 C12            3.6595    -0.2068    -0.1802 C.3     
  13 O13            4.0715    -0.3539    -1.5406 O.3     
  14 C14            5.3574    -0.7359    -1.7579 C.ar    
  15 C15            5.8245    -0.8980    -3.0541 C.ar    
  16 C16            7.1322    -1.2864    -3.2724 C.ar    
  17 C17            7.9752    -1.5136    -2.2003 C.ar    
  18 C18            7.5120    -1.3532    -0.9074 C.ar    
  19 C19            6.2070    -0.9589    -0.6840 C.ar    
  20 C20           -3.4116     2.9910    -1.6567 C.2     
  21 O21           -2.5447     3.9881    -1.3839 O.3     
  22 C22           -2.8563     5.0622    -2.1208 C.2     
  23 C23           -3.9338     4.7694    -2.8820 C.2     
  24 C24           -4.2938     3.4433    -2.5957 C.2     
  25 C25           -2.1258     6.3801    -2.1038 C.3     
  26 F26           -2.6947     7.2163    -1.1373 F       
  27 F27           -0.7782     6.1624    -1.7973 F       
  28 F28           -2.2261     6.9851    -3.3613 F       
  29 H29           -1.5199    -1.2437    -1.0176 H       
  30 H30           -1.1560    -1.7226     0.6590 H       
  31 H31           -3.3832    -0.4902     0.2990 H       
  32 H32           -2.3124     0.1848     1.5523 H       
  33 H33           -1.3015     2.6559     0.9394 H       
  34 H34           -1.1793     2.9078    -0.8233 H       
  35 H35            4.2758     0.5492     0.3064 H       
  36 H36            3.7741    -1.1583     0.3391 H       
  37 H37            5.1663    -0.7210    -3.8919 H       
  38 H38            7.4962    -1.4130    -4.2813 H       
  39 H39            8.9972    -1.8172    -2.3730 H       
  40 H40            8.1722    -1.5319    -0.0717 H       
  41 H41            5.8456    -0.8338     0.3260 H       
  42 H42           -4.4236     5.4303    -3.5818 H       
  43 H43           -5.1116     2.8888    -3.0318 H       
@<TRIPOS>BOND
   1    1    2 2
   2    1    9 1
   3    1    6 1
   4    2    3 1
   5    2   11 1
   6    3    4 1
   7    3   29 1
   8    3   30 1
   9    4    5 1
  10    4   31 1
  11    4   32 1
  12    5    6 1
  13    5    7 am
  14    6   33 1
  15    6   34 1
  16    7    8 2
  17    7   20 1
  18    9   10 1
  19   10   11 2
  20   10   12 1
  21   12   13 1
  22   12   35 1
  23   12   36 1
  24   13   14 1
  25   14   15 ar
  26   14   19 ar
  27   15   16 ar
  28   15   37 1
  29   16   17 ar
  30   16   38 1
  31   17   18 ar
  32   17   39 1
  33   18   19 ar
  34   18   40 1
  35   19   41 1
  36   20   21 1
  37   20   24 2
  38   21   22 1
  39   22   25 1
  40   22   23 2
  41   23   24 1
  42   23   42 1
  43   24   43 1
  44   25   26 1
  45   25   27 1
  46   25   28 1

#	End of record

