#	Name: ASD00311324
#	Creating user name:	WinNT
#	Creation time:	15. 06. 2019 18:34

#	Modifying user name:	WinNT
#	Modification time:	15. 06. 2019 18:34

#	Program:	/corina/corina34_cracker 3.40 0067  02.08.2006

@<TRIPOS>MOLECULE
ASD00311324
  50   54    0    0    0
SMALL
NO_CHARGES


@<TRIPOS>ATOM
   1 C1            -0.0167     1.3780     0.0096 C.2     
   2 C2             0.0021    -0.0041     0.0020 C.2     
   3 C3             1.2588    -0.6765    -0.0136 C.2     
   4 C4             2.4315     0.0675    -0.0208 C.2     
   5 C5             2.3575     1.4754    -0.0126 C.2     
   6 N6             1.1649     2.0907     0.0022 N.am    
   7 C7            -1.3431    -0.5748     0.0123 C.2     
   8 C8            -2.3221     0.3255     0.0268 C.2     
   9 S9            -1.6795     1.9560     0.0358 S.3     
  10 O10            3.3823     2.1375    -0.0188 O.2     
  11 C11            3.7477    -0.6117    -0.0366 C.ar    
  12 C12            4.5934    -0.4742    -1.1371 C.ar    
  13 C13            5.8183    -1.1095    -1.1459 C.ar    
  14 C14            6.2078    -1.8819    -0.0662 C.ar    
  15 C15            5.3733    -2.0220     1.0283 C.ar    
  16 C16            4.1487    -1.3867     1.0515 C.ar    
  17 O17            1.3089    -2.0290    -0.0209 O.3     
  18 C18           -1.5956    -2.0355     0.0065 C.ar    
  19 C19           -1.2003    -2.8208     1.0947 C.ar    
  20 C20           -1.4400    -4.1841     1.0822 C.ar    
  21 C21           -2.0687    -4.7678    -0.0050 C.ar    
  22 C22           -2.4611    -3.9921    -1.0838 C.ar    
  23 C23           -2.2325    -2.6306    -1.0801 C.ar    
  24 F24           -2.3001    -6.0988    -0.0138 F       
  25 O25           -0.5826    -2.2471     2.1605 O.3     
  26 C26           -0.2074    -3.1110     3.2352 C.3     
  27 C27            0.4593    -2.3038     4.3193 C.ar    
  28 C28           -0.2986    -1.7510     5.3346 C.ar    
  29 C29            0.3129    -1.0106     6.3289 C.ar    
  30 C30            1.6823    -0.8233     6.3082 C.ar    
  31 C31            2.4403    -1.3769     5.2934 C.ar    
  32 C32            1.8294    -2.1210     4.3014 C.ar    
  33 H33            1.1327     3.0601     0.0077 H       
  34 H34           -3.3746     0.0836     0.0360 H       
  35 H35            4.2901     0.1279    -1.9808 H       
  36 H36            6.4740    -1.0038    -1.9974 H       
  37 H37            7.1672    -2.3777    -0.0780 H       
  38 H38            5.6828    -2.6266     1.8680 H       
  39 H39            3.5002    -1.4929     1.9085 H       
  40 H40            2.2062    -2.3893    -0.0315 H       
  41 H41           -1.1360    -4.7932     1.9207 H       
  42 H42           -2.9507    -4.4534    -1.9287 H       
  43 H43           -2.5433    -2.0281    -1.9208 H       
  44 H44           -1.0961    -3.5966     3.6383 H       
  45 H45            0.4853    -3.8681     2.8679 H       
  46 H46           -1.3685    -1.8973     5.3508 H       
  47 H47           -0.2793    -0.5780     7.1218 H       
  48 H48            2.1600    -0.2442     7.0846 H       
  49 H49            3.5102    -1.2303     5.2770 H       
  50 H50            2.4220    -2.5566     3.5106 H       
@<TRIPOS>BOND
   1    1    2 2
   2    1    6 1
   3    1    9 1
   4    2    3 1
   5    2    7 1
   6    3    4 2
   7    3   17 1
   8    4    5 1
   9    4   11 1
  10    5    6 am
  11    5   10 2
  12    6   33 1
  13    7    8 2
  14    7   18 1
  15    8    9 1
  16    8   34 1
  17   11   12 ar
  18   11   16 ar
  19   12   13 ar
  20   12   35 1
  21   13   14 ar
  22   13   36 1
  23   14   15 ar
  24   14   37 1
  25   15   16 ar
  26   15   38 1
  27   16   39 1
  28   17   40 1
  29   18   19 ar
  30   18   23 ar
  31   19   20 ar
  32   19   25 1
  33   20   21 ar
  34   20   41 1
  35   21   22 ar
  36   21   24 1
  37   22   23 ar
  38   22   42 1
  39   23   43 1
  40   25   26 1
  41   26   27 1
  42   26   44 1
  43   26   45 1
  44   27   28 ar
  45   27   32 ar
  46   28   29 ar
  47   28   46 1
  48   29   30 ar
  49   29   47 1
  50   30   31 ar
  51   30   48 1
  52   31   32 ar
  53   31   49 1
  54   32   50 1

#	End of record

