#	Name: ASD01911214
#	Creating user name:	WinNT
#	Creation time:	15. 06. 2019 19:57

#	Modifying user name:	WinNT
#	Modification time:	15. 06. 2019 19:57

#	Program:	/corina/corina34_cracker 3.40 0067  02.08.2006

@<TRIPOS>MOLECULE
ASD01911214
  48   50    0    0    0
SMALL
NO_CHARGES


@<TRIPOS>ATOM
   1 C1             0.8463     0.8035    -1.1764 C.ar    
   2 N2             0.6772    -0.4937    -1.0437 N.ar    
   3 C3             1.3973    -1.3649    -1.7401 C.ar    
   4 C4             2.3639    -0.9245    -2.6411 C.ar    
   5 C5             2.5639     0.4378    -2.8016 C.ar    
   6 C6             1.7900     1.3121    -2.0550 C.ar    
   7 C7             1.1714    -2.8173    -1.5570 C.2     
   8 N8             0.2379    -3.2496    -0.6862 N.am    
   9 C9            -0.0300    -4.6176    -0.5700 C.ar    
  10 C10           -1.2984    -5.0494    -0.2053 C.ar    
  11 C11           -1.5604    -6.4008    -0.0917 C.ar    
  12 C12           -0.5603    -7.3240    -0.3410 C.ar    
  13 C13            0.7050    -6.8963    -0.7042 C.ar    
  14 C14            0.9707    -5.5466    -0.8248 C.ar    
  15 C15           -2.3880    -4.0446     0.0669 C.3     
  16 N16           -2.9517    -3.5795    -1.2029 N.am    
  17 O17            1.8278    -3.6192    -2.1919 O.2     
  18 Cl18          -0.8929    -9.0218    -0.1973 Cl      
  19 C19           -3.9974    -4.2275    -1.7534 C.2     
  20 C20           -4.6318    -3.6991    -2.9799 C.ar    
  21 C21           -3.8548    -3.4119    -4.1029 C.ar    
  22 C22           -4.4532    -2.9195    -5.2445 C.ar    
  23 C23           -5.8202    -2.7099    -5.2772 C.ar    
  24 C24           -6.5964    -2.9926    -4.1671 C.ar    
  25 C25           -6.0115    -3.4907    -3.0215 C.ar    
  26 O26           -4.4190    -5.2462    -1.2416 O.2     
  27 C27           -2.3787    -2.4103    -1.8742 C.3     
  28 C28           -6.8585    -3.7985    -1.8136 C.3     
  29 F29           -8.1962    -3.4993    -2.0935 F       
  30 F30           -6.7410    -5.1557    -1.4952 F       
  31 F31           -6.4247    -3.0262    -0.7308 F       
  32 H32            0.2386     1.4821    -0.5962 H       
  33 H33            2.9495    -1.6343    -3.2064 H       
  34 H34            3.3060     0.8094    -3.4927 H       
  35 H35            1.9208     2.3793    -2.1569 H       
  36 H36           -0.2483    -2.6121    -0.1402 H       
  37 H37           -2.5465    -6.7373     0.1923 H       
  38 H38            1.4839    -7.6189    -0.8976 H       
  39 H39            1.9580    -5.2134    -1.1086 H       
  40 H40           -3.1720    -4.5113     0.6632 H       
  41 H41           -1.9727    -3.1970     0.6121 H       
  42 H42           -2.7873    -3.5745    -4.0784 H       
  43 H43           -3.8529    -2.6969    -6.1143 H       
  44 H44           -6.2835    -2.3236    -6.1730 H       
  45 H45           -7.6631    -2.8264    -4.1990 H       
  46 H46           -1.6533    -2.7380    -2.6187 H       
  47 H47           -3.1730    -1.8470    -2.3640 H       
  48 H48           -1.8835    -1.7757    -1.1391 H       
@<TRIPOS>BOND
   1    1    2 ar
   2    1    6 ar
   3    1   32 1
   4    2    3 ar
   5    3    4 ar
   6    3    7 1
   7    4    5 ar
   8    4   33 1
   9    5    6 ar
  10    5   34 1
  11    6   35 1
  12    7    8 am
  13    7   17 2
  14    8    9 1
  15    8   36 1
  16    9   10 ar
  17    9   14 ar
  18   10   11 ar
  19   10   15 1
  20   11   12 ar
  21   11   37 1
  22   12   13 ar
  23   12   18 1
  24   13   14 ar
  25   13   38 1
  26   14   39 1
  27   15   16 1
  28   15   40 1
  29   15   41 1
  30   16   19 am
  31   16   27 1
  32   19   20 1
  33   19   26 2
  34   20   21 ar
  35   20   25 ar
  36   21   22 ar
  37   21   42 1
  38   22   23 ar
  39   22   43 1
  40   23   24 ar
  41   23   44 1
  42   24   25 ar
  43   24   45 1
  44   25   28 1
  45   27   46 1
  46   27   47 1
  47   27   48 1
  48   28   29 1
  49   28   30 1
  50   28   31 1

#	End of record

