#	Name: ASD01940361
#	Creating user name:	WinNT
#	Creation time:	15. 06. 2019 20:12

#	Modifying user name:	WinNT
#	Modification time:	15. 06. 2019 20:12

#	Program:	/corina/corina34_cracker 3.40 0067  02.08.2006

@<TRIPOS>MOLECULE
ASD01940361
  46   49    0    0    0
SMALL
NO_CHARGES


@<TRIPOS>ATOM
   1 C1             1.2646     7.2043    -3.9376 C.3     
   2 C2             1.5764     7.4086    -5.4215 C.3     
   3 C3             1.8737     6.0636    -4.7554 C.3     
   4 S4             2.3362     8.0372    -2.7341 S.o2    
   5 O5             3.6672     7.5487    -2.8297 O.2     
   6 O6             2.0679     9.4324    -2.7092 O.2     
   7 N7             1.8061     7.4931    -1.2627 N.am    
   8 C8             1.9901     6.1510    -0.9042 C.ar    
   9 C9             1.1166     5.5425    -0.0037 C.ar    
  10 C10            1.3034     4.2125     0.3475 C.ar    
  11 C11            2.3563     3.4943    -0.1974 C.ar    
  12 C12            3.2219     4.1006    -1.0910 C.ar    
  13 C13            3.0377     5.4240    -1.4486 C.ar    
  14 F14            2.5382     2.2001     0.1449 F       
  15 F15            0.4598     3.6187     1.2199 F       
  16 N16            0.0533     6.2717     0.5457 N.pl3   
  17 C17            0.6856     8.6801     3.8896 C.ar    
  18 C18           -0.6064     8.4950     3.3983 C.ar    
  19 C19           -0.8145     7.6974     2.2917 C.ar    
  20 C20            0.2650     7.0786     1.6663 C.ar    
  21 C21            1.5521     7.2625     2.1558 C.ar    
  22 C22            1.7637     8.0591     3.2618 C.ar    
  23 C23            0.9127     9.5419     5.0754 C.ar    
  24 C24            2.2034     9.7278     5.5675 C.ar    
  25 C25            2.4099    10.5302     6.6707 C.ar    
  26 C26            1.3366    11.1504     7.2895 C.ar    
  27 C27            0.0519    10.9681     6.8041 C.ar    
  28 C28           -0.1633    10.1727     5.6973 C.ar    
  29 F29            1.5434    11.9349     8.3698 F       
  30 F30           -2.0655     7.5172     1.8147 F       
  31 H31            0.2167     7.1145    -3.6513 H       
  32 H32            0.7337     7.4532    -6.1114 H       
  33 H33            2.4255     8.0435    -5.6746 H       
  34 H34            2.9184     5.8137    -4.5703 H       
  35 H35            1.2265     5.2234    -5.0071 H       
  36 H36            1.3683     8.1034    -0.6489 H       
  37 H37            4.0412     3.5377    -1.5134 H       
  38 H38            3.7125     5.8925    -2.1497 H       
  39 H39           -0.8296     6.2161     0.1479 H       
  40 H40           -1.4432     8.9751     3.8837 H       
  41 H41            2.3880     6.7814     1.6696 H       
  42 H42            2.7648     8.2018     3.6410 H       
  43 H43            3.0405     9.2441     5.0861 H       
  44 H44            3.4097    10.6748     7.0527 H       
  45 H45           -0.7820    11.4529     7.2900 H       
  46 H46           -1.1645    10.0353     5.3165 H       
@<TRIPOS>BOND
   1    1    2 1
   2    1    3 1
   3    1    4 1
   4    1   31 1
   5    2    3 1
   6    2   32 1
   7    2   33 1
   8    3   34 1
   9    3   35 1
  10    4    5 2
  11    4    6 2
  12    4    7 am
  13    7    8 1
  14    7   36 1
  15    8    9 ar
  16    8   13 ar
  17    9   10 ar
  18    9   16 1
  19   10   11 ar
  20   10   15 1
  21   11   12 ar
  22   11   14 1
  23   12   13 ar
  24   12   37 1
  25   13   38 1
  26   16   20 1
  27   16   39 1
  28   17   18 ar
  29   17   22 ar
  30   17   23 1
  31   18   19 ar
  32   18   40 1
  33   19   20 ar
  34   19   30 1
  35   20   21 ar
  36   21   22 ar
  37   21   41 1
  38   22   42 1
  39   23   24 ar
  40   23   28 ar
  41   24   25 ar
  42   24   43 1
  43   25   26 ar
  44   25   44 1
  45   26   27 ar
  46   26   29 1
  47   27   28 ar
  48   27   45 1
  49   28   46 1

#	End of record

