#	Name: ASD01900880
#	Creating user name:	WinNT
#	Creation time:	15. 06. 2019 19:52

#	Modifying user name:	WinNT
#	Modification time:	15. 06. 2019 19:52

#	Program:	/corina/corina34_cracker 3.40 0067  02.08.2006

@<TRIPOS>MOLECULE
ASD01900880
  58   62    0    0    0
SMALL
NO_CHARGES


@<TRIPOS>ATOM
   1 C1             0.4447     0.9353     0.1649 C.ar    
   2 C2             0.5537    -0.4371     0.0790 C.ar    
   3 C3             1.7701    -1.0283    -0.2248 C.ar    
   4 C4             2.8932    -0.2532    -0.4407 C.ar    
   5 C5             2.8016     1.1258    -0.3560 C.ar    
   6 C6             1.5672     1.7294    -0.0574 C.ar    
   7 N7             3.9073     1.9463    -0.5497 N.pl3   
   8 C8             3.6983     3.3061    -1.0594 C.3     
   9 N9             2.5593     3.9309    -0.3855 N.am    
  10 C10            1.5029     3.1992     0.0218 C.2     
  11 C11            2.5673     5.3129    -0.1589 C.ar    
  12 C12            3.3223     5.8422     0.8794 C.ar    
  13 C13            3.3296     7.2049     1.1023 C.ar    
  14 C14            2.5830     8.0451     0.2892 C.ar    
  15 C15            1.8285     7.5170    -0.7483 C.ar    
  16 C16            1.8247     6.1551    -0.9759 C.ar    
  17 O17            2.5903     9.3868     0.5095 O.3     
  18 O18            0.5053     3.7474     0.4500 O.2     
  19 C19            1.8883    10.2025    -0.4307 C.3     
  20 C20            4.9579     4.1401    -0.8079 C.3     
  21 C21            3.4295     3.2466    -2.5658 C.3     
  22 C22            3.2780     4.6701    -3.1073 C.3     
  23 N23            4.5056     5.4304    -2.8405 N.3     
  24 C24            4.7620     5.5384    -1.3987 C.3     
  25 C25            4.4489     6.7583    -3.4660 C.3     
  26 C26            5.6919     7.5336    -3.1127 C.ar    
  27 C27            6.7940     7.4889    -3.9457 C.ar    
  28 C28            7.9347     8.2000    -3.6229 C.ar    
  29 C29            7.9737     8.9567    -2.4659 C.ar    
  30 C30            6.8695     9.0015    -1.6313 C.ar    
  31 C31            5.7272     8.2937    -1.9584 C.ar    
  32 Cl32           6.9167     9.9508    -0.1786 Cl      
  33 Cl33           9.4061     9.8494    -2.0598 Cl      
  34 H34           -0.5059     1.3914     0.3986 H       
  35 H35           -0.3150    -1.0555     0.2500 H       
  36 H36            1.8405    -2.1039    -0.2929 H       
  37 H37            3.8384    -0.7208    -0.6741 H       
  38 H38            4.8009     1.6254    -0.3512 H       
  39 H39            3.9033     5.1882     1.5127 H       
  40 H40            3.9164     7.6167     1.9100 H       
  41 H41            1.2475     8.1718    -1.3809 H       
  42 H42            1.2411     5.7446    -1.7867 H       
  43 H43            1.9038    11.2394    -0.0949 H       
  44 H44            2.3696    10.1292    -1.4059 H       
  45 H45            0.8561     9.8612    -0.5083 H       
  46 H46            5.1340     4.2195     0.2648 H       
  47 H47            5.8133     3.6604    -1.2836 H       
  48 H48            4.2637     2.7540    -3.0652 H       
  49 H49            2.5122     2.6874    -2.7501 H       
  50 H50            3.1004     4.6327    -4.1821 H       
  51 H51            2.4353     5.1574    -2.6169 H       
  52 H52            3.9137     6.0218    -0.9142 H       
  53 H53            5.6612     6.1318    -1.2332 H       
  54 H54            4.3852     6.6476    -4.5485 H       
  55 H55            3.5714     7.2936    -3.1033 H       
  56 H56            6.7640     6.8978    -4.8491 H       
  57 H57            8.7956     8.1644    -4.2740 H       
  58 H58            4.8643     8.3314    -1.3101 H       
@<TRIPOS>BOND
   1    1    2 ar
   2    1    6 ar
   3    1   34 1
   4    2    3 ar
   5    2   35 1
   6    3    4 ar
   7    3   36 1
   8    4    5 ar
   9    4   37 1
  10    5    7 1
  11    5    6 ar
  12    6   10 1
  13    7    8 1
  14    7   38 1
  15    8    9 1
  16    8   21 1
  17    8   20 1
  18    9   10 am
  19    9   11 1
  20   10   18 2
  21   11   12 ar
  22   11   16 ar
  23   12   13 ar
  24   12   39 1
  25   13   14 ar
  26   13   40 1
  27   14   15 ar
  28   14   17 1
  29   15   16 ar
  30   15   41 1
  31   16   42 1
  32   17   19 1
  33   19   43 1
  34   19   44 1
  35   19   45 1
  36   20   24 1
  37   20   46 1
  38   20   47 1
  39   21   22 1
  40   21   48 1
  41   21   49 1
  42   22   23 1
  43   22   50 1
  44   22   51 1
  45   23   24 1
  46   23   25 1
  47   24   52 1
  48   24   53 1
  49   25   26 1
  50   25   54 1
  51   25   55 1
  52   26   27 ar
  53   26   31 ar
  54   27   28 ar
  55   27   56 1
  56   28   29 ar
  57   28   57 1
  58   29   30 ar
  59   29   33 1
  60   30   31 ar
  61   30   32 1
  62   31   58 1

#	End of record

