#	Name: ASD03430946
#	Creating user name:	WinNT
#	Creation time:	15. 06. 2019 20:41

#	Modifying user name:	WinNT
#	Modification time:	15. 06. 2019 20:41

#	Program:	/corina/corina34_cracker 3.40 0067  02.08.2006

@<TRIPOS>MOLECULE
ASD03430946
  53   58    0    0    0
SMALL
NO_CHARGES


@<TRIPOS>ATOM
   1 O1             0.1949     1.6881    -0.3145 O.3     
   2 C2             0.1545     0.2489    -0.3262 C.3     
   3 O3             1.4112    -0.1243    -0.9211 O.3     
   4 C4             2.2683     0.9005    -0.6381 C.ar    
   5 C5             1.5199     2.0149    -0.2662 C.ar    
   6 C6             3.6494     0.9732    -0.6675 C.ar    
   7 C7             4.3004     2.1557    -0.3290 C.ar    
   8 C8             3.5418     3.2647     0.0329 C.ar    
   9 C9             2.1648     3.1935     0.0692 C.ar    
  10 O10            5.6350     2.4317    -0.2765 O.3     
  11 C11            4.5157     4.3787     0.3092 C.3     
  12 C12            5.8261     3.8595    -0.2980 C.3     
  13 N13            3.9929     6.5706     0.6922 N.am    
  14 C14            4.0862     5.6764    -0.3123 C.2     
  15 C15            4.6532     4.6659     1.7750 C.ar    
  16 C16            5.0126     3.9037     2.8641 C.ar    
  17 C17            5.0473     4.4706     4.1255 C.ar    
  18 C18            4.7201     5.8043     4.2898 C.ar    
  19 C19            4.3585     6.5718     3.2023 C.ar    
  20 C20            4.3212     6.0095     1.9287 C.ar    
  21 O21            3.8667     5.8802    -1.4876 O.2     
  22 C22            4.0027     8.0237     3.3929 C.3     
  23 F23            4.2173     8.3852     4.7273 F       
  24 F24            4.8040     8.8133     2.5613 F       
  25 F25            2.6565     8.2206     3.0672 F       
  26 C26            3.5945     7.9684     0.5083 C.3     
  27 S27            5.9527     9.6779     0.6352 S.3     
  28 C28            6.6443    10.0681    -0.8790 C.2     
  29 N29            5.9717     9.5150    -1.8310 N.2     
  30 C30            4.9285     8.7875    -1.4857 C.2     
  31 C31            4.7090     8.7235    -0.1690 C.2     
  32 C32            7.8630    10.9329    -1.0735 C.3     
  33 C33            8.9535    10.1259    -1.7808 C.3     
  34 C34            7.4947    12.1490    -1.9257 C.3     
  35 H35            0.0809    -0.1404     0.6892 H       
  36 H36           -0.6775    -0.1059    -0.9346 H       
  37 H37            4.2263     0.1066    -0.9548 H       
  38 H38            1.5881     4.0593     0.3595 H       
  39 H39            6.6784     4.1454     0.3183 H       
  40 H40            5.9481     4.2184    -1.3200 H       
  41 H41            5.2674     2.8623     2.7334 H       
  42 H42            5.3289     3.8731     4.9800 H       
  43 H43            4.7474     6.2469     5.2746 H       
  44 H44            2.6978     8.0122    -0.1098 H       
  45 H45            3.3886     8.4182     1.4796 H       
  46 H46            4.3021     8.2846    -2.2076 H       
  47 H47            8.2301    11.2671    -0.1030 H       
  48 H48            9.2159     9.2595    -1.1737 H       
  49 H49            8.5864     9.7917    -2.7513 H       
  50 H50            9.8350    10.7514    -1.9215 H       
  51 H51            6.7178    12.7240    -1.4217 H       
  52 H52            8.3762    12.7746    -2.0663 H       
  53 H53            7.1276    11.8149    -2.8961 H       
@<TRIPOS>BOND
   1    1    2 1
   2    1    5 1
   3    2    3 1
   4    2   35 1
   5    2   36 1
   6    3    4 1
   7    4    5 ar
   8    4    6 ar
   9    5    9 ar
  10    6    7 ar
  11    6   37 1
  12    7    8 ar
  13    7   10 1
  14    8    9 ar
  15    8   11 1
  16    9   38 1
  17   10   12 1
  18   11   12 1
  19   11   14 1
  20   11   15 1
  21   12   39 1
  22   12   40 1
  23   13   14 am
  24   13   20 1
  25   13   26 1
  26   14   21 2
  27   15   16 ar
  28   15   20 ar
  29   16   17 ar
  30   16   41 1
  31   17   18 ar
  32   17   42 1
  33   18   19 ar
  34   18   43 1
  35   19   20 ar
  36   19   22 1
  37   22   23 1
  38   22   24 1
  39   22   25 1
  40   26   31 1
  41   26   44 1
  42   26   45 1
  43   27   28 1
  44   27   31 1
  45   28   29 2
  46   28   32 1
  47   29   30 1
  48   30   31 2
  49   30   46 1
  50   32   33 1
  51   32   34 1
  52   32   47 1
  53   33   48 1
  54   33   49 1
  55   33   50 1
  56   34   51 1
  57   34   52 1
  58   34   53 1

#	End of record

