#	Name: ASD03240670
#	Creating user name:	WinNT
#	Creation time:	15. 06. 2019 20:35

#	Modifying user name:	WinNT
#	Modification time:	15. 06. 2019 20:35

#	Program:	/corina/corina34_cracker 3.40 0067  02.08.2006

@<TRIPOS>MOLECULE
ASD03240670
  56   62    0    0    0
SMALL
NO_CHARGES


@<TRIPOS>ATOM
   1 C1            -0.0166     1.3755     0.0096 C.ar    
   2 C2             0.0021    -0.0041     0.0020 C.ar    
   3 N3             1.1422    -0.6683    -0.0054 N.ar    
   4 C4             2.3145    -0.0481    -0.0053 C.ar    
   5 C5             2.3702     1.3442    -0.0124 C.ar    
   6 C6             1.1860     2.0698     0.0019 C.ar    
   7 N7             3.4819    -0.8059     0.0229 N.pl3   
   8 C8             4.3587    -0.7192     1.1008 C.ar    
   9 C9             4.9948     0.4891     1.4046 C.ar    
  10 C10            4.7639     1.6836     0.5625 C.2     
  11 N11            3.5938     2.0277    -0.0512 N.pl3   
  12 C12            4.6043    -1.8388     1.8845 C.ar    
  13 C13            5.4634    -1.7532     2.9633 C.ar    
  14 C14            6.0848    -0.5553     3.2716 C.ar    
  15 C15            5.8554     0.5656     2.4994 C.ar    
  16 N16            5.6759     2.5930     0.2864 N.2     
  17 C17            5.1460     3.5403    -0.5058 C.2     
  18 C18            3.8212     3.2029    -0.7371 C.2     
  19 C19            2.8481     3.9517    -1.5548 C.ar    
  20 C20            2.7482     5.3400    -1.4311 C.ar    
  21 C21            2.0258     3.2768    -2.4608 C.ar    
  22 C22            1.1183     3.9835    -3.2219 C.ar    
  23 C23            1.0210     5.3576    -3.0899 C.ar    
  24 C24            1.8361     6.0334    -2.1988 C.ar    
  25 C25            5.8473     4.7257    -1.0339 C.2     
  26 S26            7.5328     5.1372    -0.7282 S.3     
  27 C27            0.0269     6.1226    -3.9251 C.3     
  28 N28           -1.0515     5.2734    -4.4486 N.3     
  29 C29           -0.4749     7.4136    -3.2570 C.3     
  30 C30           -0.3891     8.0716    -4.6443 C.3     
  31 C31            0.6785     7.0182    -4.9919 C.3     
  32 C32            7.3557     6.5817    -1.7223 C.2     
  33 C33            6.0997     6.6258    -2.1769 C.2     
  34 N34            5.3210     5.6346    -1.8066 N.2     
  35 H35           -0.9556     1.9091     0.0170 H       
  36 H36           -0.9306    -0.5486     0.0025 H       
  37 H37            1.2002     3.1497     0.0061 H       
  38 H38            3.6864    -1.4004    -0.7157 H       
  39 H39            4.1233    -2.7771     1.6509 H       
  40 H40            5.6517    -2.6268     3.5698 H       
  41 H41            6.7512    -0.4973     4.1196 H       
  42 H42            6.3413     1.4991     2.7420 H       
  43 H43            3.3834     5.8686    -0.7358 H       
  44 H44            2.1009     2.2045    -2.5651 H       
  45 H45            0.4824     3.4633    -3.9228 H       
  46 H46            1.7547     7.1059    -2.1010 H       
  47 H47           -0.6781     4.4515    -4.8993 H       
  48 H48           -1.7005     5.0218    -3.7181 H       
  49 H49           -1.4916     7.3389    -2.8713 H       
  50 H50            0.2244     7.8303    -2.5321 H       
  51 H51           -1.3029     7.9750    -5.2306 H       
  52 H52           -0.0059     9.0917    -4.6208 H       
  53 H53            1.6937     7.3264    -4.7415 H       
  54 H54            0.5918     6.6266    -6.0054 H       
  55 H55            8.1291     7.3068    -1.9284 H       
  56 H56            5.7477     7.4248    -2.8126 H       
@<TRIPOS>BOND
   1    1    2 ar
   2    1    6 ar
   3    1   35 1
   4    2    3 ar
   5    2   36 1
   6    3    4 ar
   7    4    5 ar
   8    4    7 1
   9    5    6 ar
  10    5   11 1
  11    6   37 1
  12    7    8 1
  13    7   38 1
  14    8    9 ar
  15    8   12 ar
  16    9   10 1
  17    9   15 ar
  18   10   11 1
  19   10   16 2
  20   11   18 1
  21   12   13 ar
  22   12   39 1
  23   13   14 ar
  24   13   40 1
  25   14   15 ar
  26   14   41 1
  27   15   42 1
  28   16   17 1
  29   17   18 2
  30   17   25 1
  31   18   19 1
  32   19   20 ar
  33   19   21 ar
  34   20   24 ar
  35   20   43 1
  36   21   22 ar
  37   21   44 1
  38   22   23 ar
  39   22   45 1
  40   23   24 ar
  41   23   27 1
  42   24   46 1
  43   25   26 1
  44   25   34 2
  45   26   32 1
  46   27   28 1
  47   27   29 1
  48   27   31 1
  49   28   47 1
  50   28   48 1
  51   29   30 1
  52   29   49 1
  53   29   50 1
  54   30   31 1
  55   30   51 1
  56   30   52 1
  57   31   53 1
  58   31   54 1
  59   32   33 2
  60   32   55 1
  61   33   34 1
  62   33   56 1

#	End of record

