#	Name: ASD01910874
#	Creating user name:	WinNT
#	Creation time:	15. 06. 2019 19:56

#	Modifying user name:	WinNT
#	Modification time:	15. 06. 2019 19:56

#	Program:	/corina/corina34_cracker 3.40 0067  02.08.2006

@<TRIPOS>MOLECULE
ASD01910874
  52   55    0    0    0
SMALL
NO_CHARGES


@<TRIPOS>ATOM
   1 C1            -0.2843     1.0995     0.3944 C.ar    
   2 C2            -0.1910    -0.2771     0.3049 C.ar    
   3 C3             1.0477    -0.8834     0.2286 C.ar    
   4 C4             2.2004    -0.1087     0.2419 C.ar    
   5 C5             2.1030     1.2743     0.3319 C.ar    
   6 C6             0.8615     1.8740     0.4079 C.ar    
   7 N7             3.4546    -0.7185     0.1654 N.3     
   8 C8             3.3253    -2.1792     0.0779 C.3     
   9 C9             4.7031    -2.7958    -0.1858 C.3     
  10 N10            5.6353    -2.3147     0.8451 N.am    
  11 C11            5.7190    -0.8662     1.0862 C.3     
  12 C12            4.3011    -0.3255     1.2998 C.3     
  13 C13            6.3925    -3.1782     1.5504 C.2     
  14 C14            7.4116    -2.6687     2.4929 C.ar    
  15 C15            7.6070    -3.3025     3.7221 C.ar    
  16 C16            8.5583    -2.8285     4.6042 C.ar    
  17 C17            9.3225    -1.7263     4.2787 C.ar    
  18 C18            9.1376    -1.0814     3.0518 C.ar    
  19 C19            8.1828    -1.5591     2.1542 C.ar    
  20 C20            9.9307     0.0624     2.7151 C.1     
  21 O21            6.2376    -4.3758     1.4118 O.2     
  22 C22           10.5809     1.0002     2.4392 C.1     
  23 C23           11.3739     2.1440     2.1025 C.ar    
  24 C24           11.1977     2.7960     0.8796 C.ar    
  25 N25           11.9274     3.8477     0.5708 N.ar    
  26 C26           12.8439     4.3252     1.3907 C.ar    
  27 C27           13.0800     3.7363     2.6204 C.ar    
  28 C28           12.3365     2.6323     2.9966 C.ar    
  29 C29            0.7549     3.3740     0.5051 C.3     
  30 H30           -1.2542     1.5713     0.4493 H       
  31 H31           -1.0877    -0.8790     0.2949 H       
  32 H32            1.1199    -1.9588     0.1591 H       
  33 H33            2.9973     1.8797     0.3425 H       
  34 H34            2.9272    -2.5660     1.0161 H       
  35 H35            2.6496    -2.4363    -0.7378 H       
  36 H36            4.6332    -3.8825    -0.1378 H       
  37 H37            5.0578    -2.4920    -1.1707 H       
  38 H38            6.3207    -0.6771     1.9752 H       
  39 H39            6.1713    -0.3769     0.2236 H       
  40 H40            4.3332     0.7617     1.3702 H       
  41 H41            3.8895    -0.7381     2.2209 H       
  42 H42            7.0124    -4.1652     3.9837 H       
  43 H43            8.7045    -3.3226     5.5534 H       
  44 H44           10.0646    -1.3610     4.9732 H       
  45 H45            8.0354    -1.0652     1.2051 H       
  46 H46           10.4571     2.4343     0.1817 H       
  47 H47           13.4199     5.1903     1.0971 H       
  48 H48           13.8339     4.1373     3.2816 H       
  49 H49           12.5000     2.1532     3.9506 H       
  50 H50            0.6975     3.7999    -0.4967 H       
  51 H51           -0.1423     3.6391     1.0645 H       
  52 H52            1.6324     3.7682     1.0176 H       
@<TRIPOS>BOND
   1    1    2 ar
   2    1    6 ar
   3    1   30 1
   4    2    3 ar
   5    2   31 1
   6    3    4 ar
   7    3   32 1
   8    4    5 ar
   9    4    7 1
  10    5    6 ar
  11    5   33 1
  12    6   29 1
  13    7    8 1
  14    7   12 1
  15    8    9 1
  16    8   34 1
  17    8   35 1
  18    9   10 1
  19    9   36 1
  20    9   37 1
  21   10   11 1
  22   10   13 am
  23   11   12 1
  24   11   38 1
  25   11   39 1
  26   12   40 1
  27   12   41 1
  28   13   14 1
  29   13   21 2
  30   14   15 ar
  31   14   19 ar
  32   15   16 ar
  33   15   42 1
  34   16   17 ar
  35   16   43 1
  36   17   18 ar
  37   17   44 1
  38   18   19 ar
  39   18   20 1
  40   19   45 1
  41   20   22 3
  42   22   23 1
  43   23   24 ar
  44   23   28 ar
  45   24   25 ar
  46   24   46 1
  47   25   26 ar
  48   26   27 ar
  49   26   47 1
  50   27   28 ar
  51   27   48 1
  52   28   49 1
  53   29   50 1
  54   29   51 1
  55   29   52 1

#	End of record

