#	Name: ASD03331649
#	Creating user name:	WinNT
#	Creation time:	15. 06. 2019 20:39

#	Modifying user name:	WinNT
#	Modification time:	15. 06. 2019 20:39

#	Program:	/corina/corina34_cracker 3.40 0067  02.08.2006

@<TRIPOS>MOLECULE
ASD03331649
  58   61    0    0    0
SMALL
NO_CHARGES


@<TRIPOS>ATOM
   1 C1             2.2542     0.2551    -0.4891 C.ar    
   2 C2             1.3008    -0.5202     0.1332 C.ar    
   3 C3             0.5200     0.0105     1.1521 C.ar    
   4 C4             0.6856     1.3171     1.5561 C.ar    
   5 C5             2.4336     1.5811    -0.0905 C.ar    
   6 C6             3.3266     2.6604    -0.5191 C.2     
   7 C7             1.6423     2.1176     0.9416 C.ar    
   8 N8             2.0358     3.4263     1.1161 N.pl3   
   9 C9             3.0397     3.7312     0.2380 C.2     
  10 S10            3.8379     5.2974     0.1185 S.o2    
  11 O11            3.2089     6.1422     1.0724 O.2     
  12 O12            5.2348     5.0365     0.1129 O.2     
  13 N13            3.4728     5.9213    -1.3714 N.am    
  14 C14            2.0904     6.2818    -1.6958 C.3     
  15 C15            2.0744     7.1754    -2.9376 C.3     
  16 C16            0.6524     7.5462    -3.2714 C.ar    
  17 C17           -1.3933     7.0791    -4.4250 C.ar    
  18 C18           -0.0898     6.7423    -4.1170 C.ar    
  19 C19            0.0908     8.6865    -2.7268 C.ar    
  20 C20           -1.2122     9.0290    -3.0302 C.ar    
  21 C21           -1.9588     8.2267    -3.8838 C.ar    
  22 N22           -3.2768     8.5704    -4.1932 N.3     
  23 C23            4.3695     2.5833    -1.6042 C.3     
  24 C24           -4.1972     7.4741    -3.8655 C.3     
  25 C25           -3.6692     9.8133    -3.5167 C.3     
  26 Cl26           1.0733    -2.1693    -0.3591 Cl      
  27 C27            3.7148     2.8509    -2.9608 C.3     
  28 C28           -5.6055     7.8268    -4.3497 C.3     
  29 C29           -6.0632     9.1219    -3.6731 C.3     
  30 C30           -5.0617    10.2358    -3.9905 C.3     
  31 H31            2.8626    -0.1617    -1.2780 H       
  32 H32           -0.2245    -0.6072     1.6322 H       
  33 H33            0.0728     1.7194     2.3492 H       
  34 H34            1.6578     4.0399     1.7653 H       
  35 H35            4.1743     6.0481    -2.0293 H       
  36 H36            1.5155     5.3768    -1.8921 H       
  37 H37            1.6482     6.8183    -0.8564 H       
  38 H38            2.6494     8.0804    -2.7414 H       
  39 H39            2.5166     6.6389    -3.7771 H       
  40 H40           -1.9725     6.4507    -5.0852 H       
  41 H41            0.3505     5.8502    -4.5374 H       
  42 H42            0.6718     9.3098    -2.0632 H       
  43 H43           -1.6505     9.9193    -2.6039 H       
  44 H44            5.1417     3.3302    -1.4197 H       
  45 H45            4.8182     1.5899    -1.6069 H       
  46 H46           -3.8627     6.5601    -4.3562 H       
  47 H47           -4.2116     7.3223    -2.7862 H       
  48 H48           -3.6860     9.6506    -2.4391 H       
  49 H49           -2.9511    10.5983    -3.7541 H       
  50 H50            2.9426     2.1040    -3.1453 H       
  51 H51            3.2661     3.8443    -2.9581 H       
  52 H52            4.4691     2.7951    -3.7457 H       
  53 H53           -5.5946     7.9652    -5.4308 H       
  54 H54           -6.2915     7.0197    -4.0924 H       
  55 H55           -7.0483     9.4001    -4.0477 H       
  56 H56           -6.1116     8.9720    -2.5945 H       
  57 H57           -5.3591    11.1499    -3.4766 H       
  58 H58           -5.0422    10.4121    -5.0659 H       
@<TRIPOS>BOND
   1    1    2 ar
   2    1    5 ar
   3    1   31 1
   4    2    3 ar
   5    2   26 1
   6    3    4 ar
   7    3   32 1
   8    4    7 ar
   9    4   33 1
  10    5    7 ar
  11    5    6 1
  12    6    9 2
  13    6   23 1
  14    7    8 1
  15    8    9 1
  16    8   34 1
  17    9   10 1
  18   10   11 2
  19   10   12 2
  20   10   13 am
  21   13   14 1
  22   13   35 1
  23   14   15 1
  24   14   36 1
  25   14   37 1
  26   15   16 1
  27   15   38 1
  28   15   39 1
  29   16   19 ar
  30   16   18 ar
  31   17   18 ar
  32   17   21 ar
  33   17   40 1
  34   18   41 1
  35   19   20 ar
  36   19   42 1
  37   20   21 ar
  38   20   43 1
  39   21   22 1
  40   22   25 1
  41   22   24 1
  42   23   27 1
  43   23   44 1
  44   23   45 1
  45   24   28 1
  46   24   46 1
  47   24   47 1
  48   25   30 1
  49   25   48 1
  50   25   49 1
  51   27   50 1
  52   27   51 1
  53   27   52 1
  54   28   29 1
  55   28   53 1
  56   28   54 1
  57   29   30 1
  58   29   55 1
  59   29   56 1
  60   30   57 1
  61   30   58 1

#	End of record

