#	Name: ASD01812726
#	Creating user name:	WinNT
#	Creation time:	15. 06. 2019 19:29

#	Modifying user name:	WinNT
#	Modification time:	15. 06. 2019 19:29

#	Program:	/corina/corina34_cracker 3.40 0067  02.08.2006

@<TRIPOS>MOLECULE
ASD01812726
  59   63    0    0    0
SMALL
NO_CHARGES


@<TRIPOS>ATOM
   1 C1             0.0575     1.4301    -0.6135 C.ar    
   2 C2             0.1011     0.0678    -0.8329 C.ar    
   3 C3             1.2831    -0.6332    -0.6468 C.ar    
   4 C4             2.4190     0.0257    -0.2429 C.ar    
   5 C5             2.3933     1.4052    -0.0165 C.ar    
   6 C6             1.1962     2.1092    -0.2055 C.ar    
   7 C7             3.8293    -0.4261     0.0437 C.3     
   8 N8             4.5723     0.7763     0.4379 N.am    
   9 C9             3.7392     1.8305     0.4016 C.2     
  10 C10            5.9886     0.8205     0.8101 C.3     
  11 C11            6.8239     1.0647    -0.4201 C.ar    
  12 C12            7.1222     2.3594    -0.8047 C.ar    
  13 C13            7.8874     2.5887    -1.9304 C.ar    
  14 C14            8.3593     1.5133    -2.6796 C.ar    
  15 C15            8.0559     0.2114    -2.2879 C.ar    
  16 C16            7.2944    -0.0068    -1.1575 C.ar    
  17 O17            1.1515     3.4479     0.0091 O.3     
  18 O18            4.0525     2.9729     0.6756 O.2     
  19 C19            8.8806     2.6039    -4.9154 C.2     
  20 C20            9.1823     1.7540    -3.8917 C.2     
  21 C21           10.4165     1.1463    -4.1938 C.2     
  22 N22           10.8284     1.6132    -5.3426 N.2     
  23 N23            9.8816     2.5298    -5.8156 N.pl3   
  24 C24           11.1368     0.1343    -3.3405 C.3     
  25 C25            9.9640     3.2786    -7.0720 C.3     
  26 C26           -0.1276     4.0779    -0.0868 C.3     
  27 C27           -0.1309     5.3598     0.7517 C.3     
  28 C28           -1.4791     6.0661     0.5793 C.3     
  29 C29           -1.7143     6.3439    -0.9077 C.3     
  30 O30           -1.6681     5.1140    -1.6339 O.3     
  31 C31           -0.4150     4.4325    -1.5480 C.3     
  32 O32            0.0637     5.0308     2.1287 O.3     
  33 H33           -0.8657     1.9700    -0.7644 H       
  34 H34           -0.7894    -0.4543    -1.1504 H       
  35 H35            1.3107    -1.6990    -0.8193 H       
  36 H36            3.8324    -1.1519     0.8568 H       
  37 H37            4.2719    -0.8634    -0.8514 H       
  38 H38            6.1512     1.6265     1.5256 H       
  39 H39            6.2754    -0.1293     1.2614 H       
  40 H40            6.7556     3.1925    -0.2233 H       
  41 H41            8.1194     3.6000    -2.2300 H       
  42 H42            8.4193    -0.6258    -2.8652 H       
  43 H43            7.0620    -1.0158    -0.8506 H       
  44 H44            7.9976     3.2209    -4.9929 H       
  45 H45           10.8175    -0.8697    -3.6200 H       
  46 H46           12.2118     0.2294    -3.4934 H       
  47 H47           10.9020     0.3112    -2.2909 H       
  48 H48           10.4773     4.2244    -6.8983 H       
  49 H49           10.5175     2.6946    -7.8074 H       
  50 H50            8.9587     3.4740    -7.4452 H       
  51 H51           -0.8965     3.3992     0.2824 H       
  52 H52            0.6709     6.0173     0.4157 H       
  53 H53           -2.2761     5.4280     0.9611 H       
  54 H54           -1.4701     7.0075     1.1287 H       
  55 H55           -2.6916     6.8080    -1.0407 H       
  56 H56           -0.9396     7.0147    -1.2792 H       
  57 H57            0.3768     5.0782    -1.9279 H       
  58 H58           -0.4562     3.5196    -2.1423 H       
  59 H59            0.0726     5.7970     2.7186 H       
@<TRIPOS>BOND
   1    1    2 ar
   2    1    6 ar
   3    1   33 1
   4    2    3 ar
   5    2   34 1
   6    3    4 ar
   7    3   35 1
   8    4    7 1
   9    4    5 ar
  10    5    6 ar
  11    5    9 1
  12    6   17 1
  13    7    8 1
  14    7   36 1
  15    7   37 1
  16    8    9 am
  17    8   10 1
  18    9   18 2
  19   10   11 1
  20   10   38 1
  21   10   39 1
  22   11   12 ar
  23   11   16 ar
  24   12   13 ar
  25   12   40 1
  26   13   14 ar
  27   13   41 1
  28   14   15 ar
  29   14   20 1
  30   15   16 ar
  31   15   42 1
  32   16   43 1
  33   17   26 1
  34   19   20 2
  35   19   23 1
  36   19   44 1
  37   20   21 1
  38   21   22 2
  39   21   24 1
  40   22   23 1
  41   23   25 1
  42   24   45 1
  43   24   46 1
  44   24   47 1
  45   25   48 1
  46   25   49 1
  47   25   50 1
  48   26   27 1
  49   26   31 1
  50   26   51 1
  51   27   28 1
  52   27   32 1
  53   27   52 1
  54   28   29 1
  55   28   53 1
  56   28   54 1
  57   29   30 1
  58   29   55 1
  59   29   56 1
  60   30   31 1
  61   31   57 1
  62   31   58 1
  63   32   59 1

#	End of record

