#	Name: ASD01813033
#	Creating user name:	WinNT
#	Creation time:	15. 06. 2019 19:29

#	Modifying user name:	WinNT
#	Modification time:	15. 06. 2019 19:29

#	Program:	/corina/corina34_cracker 3.40 0067  02.08.2006

@<TRIPOS>MOLECULE
ASD01813033
  50   52    0    0    0
SMALL
NO_CHARGES


@<TRIPOS>ATOM
   1 N1            -0.1694     1.2701     0.2008 N.ar    
   2 C2            -0.2136    -0.0471     0.2519 C.ar    
   3 C3             0.9340    -0.7936     0.4691 C.ar    
   4 C4             2.1348    -0.1409     0.6325 C.ar    
   5 C5             2.1630     1.2574     0.5748 C.ar    
   6 C6             0.9605     1.9423     0.3520 C.ar    
   7 C7             3.5513    -0.5868     0.8789 C.3     
   8 N8             4.3582     0.6376     0.9535 N.am    
   9 C9             3.5507     1.6987     0.7771 C.2     
  10 C10            5.8040     0.6942     1.1827 C.3     
  11 C11            6.5244     0.6510    -0.1403 C.ar    
  12 O12            0.9550     3.2952     0.2910 O.3     
  13 O13            3.9166     2.8583     0.7837 O.2     
  14 C14            6.6355     1.7994    -0.9055 C.ar    
  15 C15            7.2978     1.7595    -2.1206 C.ar    
  16 C16            7.8480     0.5714    -2.5689 C.ar    
  17 C17            7.7356    -0.5761    -1.8017 C.ar    
  18 C18            7.0789    -0.5339    -0.5866 C.ar    
  19 C19           -0.3049     3.9291     0.0608 C.3     
  20 C20           -0.1130     5.4466     0.0240 C.3     
  21 C21           -1.4367     6.1191    -0.3455 C.3     
  22 N22            0.3231     5.9172     1.3455 N.3     
  23 F23            8.4942     0.5309    -3.7547 F       
  24 F24            6.0976     2.9585    -0.4669 F       
  25 C25           -1.2170     7.6250    -0.5034 C.3     
  26 C26           -0.5156     5.3497     2.4096 C.3     
  27 C27            1.7414     5.6090     1.5723 C.3     
  28 H28           -1.1594    -0.5522     0.1228 H       
  29 H29            0.8866    -1.8718     0.5098 H       
  30 H30            3.6136    -1.1346     1.8191 H       
  31 H31            3.8957    -1.2131     0.0559 H       
  32 H32            6.0536     1.6194     1.7022 H       
  33 H33            6.1091    -0.1575     1.7905 H       
  34 H34            7.3847     2.6548    -2.7184 H       
  35 H35            8.1649    -1.5034    -2.1514 H       
  36 H36            6.9953    -1.4283     0.0129 H       
  37 H37           -0.7129     3.5913    -0.8918 H       
  38 H38           -0.9944     3.6694     0.8640 H       
  39 H39            0.6429     5.6993    -0.7194 H       
  40 H40           -1.8048     5.7053    -1.2843 H       
  41 H41           -2.1680     5.9393     0.4424 H       
  42 H42           -2.1376     8.0918    -0.8538 H       
  43 H43           -0.9353     8.0539     0.4583 H       
  44 H44           -0.4215     7.8022    -1.2272 H       
  45 H45           -0.3593     4.2721     2.4598 H       
  46 H46           -0.2458     5.8008     3.3645 H       
  47 H47           -1.5642     5.5551     2.1942 H       
  48 H48            2.3398     6.0408     0.7701 H       
  49 H49            2.0564     6.0296     2.5273 H       
  50 H50            1.8804     4.5280     1.5879 H       
@<TRIPOS>BOND
   1    1    2 ar
   2    1    6 ar
   3    2    3 ar
   4    2   28 1
   5    3    4 ar
   6    3   29 1
   7    4    7 1
   8    4    5 ar
   9    5    6 ar
  10    5    9 1
  11    6   12 1
  12    7    8 1
  13    7   30 1
  14    7   31 1
  15    8    9 am
  16    8   10 1
  17    9   13 2
  18   10   11 1
  19   10   32 1
  20   10   33 1
  21   11   14 ar
  22   11   18 ar
  23   12   19 1
  24   14   15 ar
  25   14   24 1
  26   15   16 ar
  27   15   34 1
  28   16   17 ar
  29   16   23 1
  30   17   18 ar
  31   17   35 1
  32   18   36 1
  33   19   20 1
  34   19   37 1
  35   19   38 1
  36   20   22 1
  37   20   21 1
  38   20   39 1
  39   21   25 1
  40   21   40 1
  41   21   41 1
  42   22   26 1
  43   22   27 1
  44   25   42 1
  45   25   43 1
  46   25   44 1
  47   26   45 1
  48   26   46 1
  49   26   47 1
  50   27   48 1
  51   27   49 1
  52   27   50 1

#	End of record

