#	Name: ASD04590085
#	Creating user name:	WinNT
#	Creation time:	15. 06. 2019 20:50

#	Modifying user name:	WinNT
#	Modification time:	15. 06. 2019 20:50

#	Program:	/corina/corina34_cracker 3.40 0067  02.08.2006

@<TRIPOS>MOLECULE
ASD04590085
  36   37    0    0    0
SMALL
NO_CHARGES


@<TRIPOS>ATOM
   1 C1            -0.0187     1.5258     0.0104 C.3     
   2 C2             0.0021    -0.0041     0.0020 C.3     
   3 C3             0.7421    -0.5109     1.2415 C.3     
   4 C4             2.1775     0.0187     1.2307 C.3     
   5 C5             2.1567     1.5485     1.2391 C.3     
   6 C6             1.4167     2.0553    -0.0004 C.3     
   7 N7            -0.7292     2.0124    -1.1797 N.3     
   8 N8             2.8879    -0.4680     2.4208 N.3     
   9 C9            -2.1089     5.4377    -2.0446 C.3     
  10 C10           -1.4534     4.0758    -2.2877 C.3     
  11 C11           -1.2882     3.3510    -0.9484 C.3     
  12 C12           -2.6589     3.2248    -0.2763 C.3     
  13 C13           -3.2679     4.6196    -0.1109 C.3     
  14 O14           -3.3651     5.2502    -1.3896 O.3     
  15 H15           -0.5289     1.8773     0.9072 H       
  16 H16           -1.0205    -0.3814     0.0098 H       
  17 H17            0.5123    -0.3556    -0.8948 H       
  18 H18            0.2319    -0.1594     2.1383 H       
  19 H19            0.7568    -1.6008     1.2356 H       
  20 H20            2.6876    -0.3328     0.3339 H       
  21 H21            1.6465     1.9000     2.1359 H       
  22 H22            3.1793     1.9258     1.2314 H       
  23 H23            1.9269     1.7038    -0.8972 H       
  24 H24            1.4019     3.1452     0.0056 H       
  25 H25           -0.1257     2.0073    -1.9883 H       
  26 H26            3.8391    -0.1316     2.4368 H       
  27 H27            2.3988    -0.2098     3.2647 H       
  28 H28           -1.4589     6.0471    -1.4167 H       
  29 H29           -2.2680     5.9401    -2.9988 H       
  30 H30           -2.0838     3.4808    -2.9485 H       
  31 H31           -0.4755     4.2191    -2.7473 H       
  32 H32           -0.6167     3.9206    -0.3059 H       
  33 H33           -3.3137     2.6126    -0.8964 H       
  34 H34           -2.5431     2.7595     0.7026 H       
  35 H35           -4.2618     4.5326     0.3280 H       
  36 H36           -2.6330     5.2183     0.5424 H       
@<TRIPOS>BOND
   1    1    2 1
   2    1    6 1
   3    1    7 1
   4    1   15 1
   5    2    3 1
   6    2   16 1
   7    2   17 1
   8    3    4 1
   9    3   18 1
  10    3   19 1
  11    4    5 1
  12    4    8 1
  13    4   20 1
  14    5    6 1
  15    5   21 1
  16    5   22 1
  17    6   23 1
  18    6   24 1
  19    7   11 1
  20    7   25 1
  21    8   26 1
  22    8   27 1
  23    9   10 1
  24    9   14 1
  25    9   28 1
  26    9   29 1
  27   10   11 1
  28   10   30 1
  29   10   31 1
  30   11   12 1
  31   11   32 1
  32   12   13 1
  33   12   33 1
  34   12   34 1
  35   13   14 1
  36   13   35 1
  37   13   36 1

#	End of record

