#	Name: ASD01901242
#	Creating user name:	WinNT
#	Creation time:	15. 06. 2019 19:53

#	Modifying user name:	WinNT
#	Modification time:	15. 06. 2019 19:53

#	Program:	/corina/corina34_cracker 3.40 0067  02.08.2006

@<TRIPOS>MOLECULE
ASD01901242
  47   50    0    0    0
SMALL
NO_CHARGES


@<TRIPOS>ATOM
   1 C1            -0.0166     1.3750     0.0096 C.ar    
   2 C2             0.0021    -0.0041     0.0020 C.ar    
   3 C3             1.2078    -0.6830    -0.0127 C.ar    
   4 C4             2.4027     0.0149    -0.0203 C.ar    
   5 C5             2.3997     1.3941    -0.0134 C.ar    
   6 C6             1.1860     2.0866     0.0019 C.ar    
   7 C7             1.1748     3.5185     0.0093 C.1     
   8 C8             1.1656     4.6925     0.0153 C.1     
   9 C9             1.1543     6.1244     0.0226 C.ar    
  10 C10           -0.0666     8.1943     0.0502 C.ar    
  11 C11           -0.0605     6.8156     0.0432 C.ar    
  12 C12            2.3585     6.8349     0.0149 C.ar    
  13 C13            2.3438     8.2124     0.0219 C.ar    
  14 C14            1.1340     8.8967     0.0371 C.ar    
  15 Cl15          -1.5743     9.0546     0.0752 Cl      
  16 N16            1.1239    10.2967     0.0438 N.am    
  17 C17            1.1031    10.9655    -1.1297 C.2     
  18 C18            1.1043    13.0742     0.1635 C.ar    
  19 N19            1.1196    12.2912     1.3030 N.am    
  20 C20            1.1294    10.9503     1.2161 C.2     
  21 C21            1.0924    12.4419    -1.0925 C.ar    
  22 C22            1.1322    12.9311     2.6208 C.3     
  23 O23            1.1435    10.3011     2.2438 O.2     
  24 O24            1.0940    10.3679    -2.1883 O.2     
  25 C25           -0.1070    12.5011     3.4084 C.3     
  26 C26            2.3913    12.5092     3.3806 C.3     
  27 N27            1.0956    14.3974     0.2315 N.ar    
  28 N28            1.0725    13.1665    -2.2026 N.ar    
  29 C29            1.0640    14.4828    -2.1205 C.ar    
  30 C30            1.0757    15.1096    -0.8810 C.ar    
  31 H31           -0.9584     1.9035     0.0169 H       
  32 H32           -0.9266    -0.5554     0.0079 H       
  33 H33            1.2163    -1.7630    -0.0178 H       
  34 H34            3.3399    -0.5217    -0.0315 H       
  35 H35            3.3330     1.9375    -0.0190 H       
  36 H36           -0.9928     6.2705     0.0533 H       
  37 H37            3.2991     6.3044     0.0038 H       
  38 H38            3.2738     8.7615     0.0160 H       
  39 H39            1.1273    14.0143     2.4987 H       
  40 H40           -0.1021    11.4179     3.5305 H       
  41 H41           -0.0976    12.9772     4.3889 H       
  42 H42           -1.0040    12.8017     2.8671 H       
  43 H43            2.3962    11.4260     3.5026 H       
  44 H44            3.2741    12.8156     2.8194 H       
  45 H45            2.4007    12.9853     4.3611 H       
  46 H46            1.0481    15.0768    -3.0223 H       
  47 H47            1.0682    16.1882    -0.8262 H       
@<TRIPOS>BOND
   1    1    2 ar
   2    1    6 ar
   3    1   31 1
   4    2    3 ar
   5    2   32 1
   6    3    4 ar
   7    3   33 1
   8    4    5 ar
   9    4   34 1
  10    5    6 ar
  11    5   35 1
  12    6    7 1
  13    7    8 3
  14    8    9 1
  15    9   12 ar
  16    9   11 ar
  17   10   11 ar
  18   10   14 ar
  19   10   15 1
  20   11   36 1
  21   12   13 ar
  22   12   37 1
  23   13   14 ar
  24   13   38 1
  25   14   16 1
  26   16   17 am
  27   16   20 am
  28   17   21 1
  29   17   24 2
  30   18   19 1
  31   18   21 ar
  32   18   27 ar
  33   19   20 am
  34   19   22 1
  35   20   23 2
  36   21   28 ar
  37   22   25 1
  38   22   26 1
  39   22   39 1
  40   25   40 1
  41   25   41 1
  42   25   42 1
  43   26   43 1
  44   26   44 1
  45   26   45 1
  46   27   30 ar
  47   28   29 ar
  48   29   30 ar
  49   29   46 1
  50   30   47 1

#	End of record

