#	Name: ASD01917661
#	Creating user name:	WinNT
#	Creation time:	15. 06. 2019 20:09

#	Modifying user name:	WinNT
#	Modification time:	15. 06. 2019 20:09

#	Program:	/corina/corina34_cracker 3.40 0067  02.08.2006

@<TRIPOS>MOLECULE
ASD01917661
  64   68    0    0    0
SMALL
NO_CHARGES


@<TRIPOS>ATOM
   1 C1            -0.0166     1.3754     0.0096 C.ar    
   2 C2             0.0021    -0.0041     0.0020 C.ar    
   3 C3            -1.1966    -0.7153     0.0096 C.ar    
   4 C4            -2.4091    -0.0288     0.0249 C.ar    
   5 C5            -1.1816    -2.1989     0.0010 C.2     
   6 N6            -0.0835    -2.9815    -0.0137 N.2     
   7 C7            -2.2714    -3.0097     0.0125 C.2     
   8 N8            -1.8045    -4.2969    -0.0017 N.pl3   
   9 C9            -0.4471    -4.2335    -0.0174 C.2     
  10 C10           -2.5823    -5.4634     0.0032 C.ar    
  11 C11           -3.5974    -5.6187     0.9374 C.ar    
  12 C12           -4.3619    -6.7690     0.9398 C.ar    
  13 C13           -3.1104    -7.6112    -0.9226 C.ar    
  14 C14           -2.3426    -6.4631    -0.9298 C.ar    
  15 C15            0.4856    -5.4171    -0.0362 C.3     
  16 C16            0.7795    -5.8024    -1.4631 C.2     
  17 N17            1.5967    -6.8416    -1.7259 N.am    
  18 O18            0.2808    -5.1775    -2.3750 O.2     
  19 C19            1.8968    -7.2344    -3.1111 C.3     
  20 C20            2.2167    -7.6089    -0.6350 C.3     
  21 C21            3.7243    -7.6948    -0.8961 C.3     
  22 N22            3.9548    -8.2331    -2.2433 N.3     
  23 C23            3.4176    -7.3358    -3.2696 C.3     
  24 C24            5.3064    -8.4786    -2.4571 C.ar    
  25 N25            6.1801    -8.2207    -1.4952 N.ar    
  26 C26            5.7268    -8.9973    -3.6751 C.ar    
  27 C27            7.0804    -9.2379    -3.8742 C.ar    
  28 C28            7.9655    -8.9467    -2.8362 C.ar    
  29 C29            7.4729    -8.4386    -1.6537 C.ar    
  30 C30           -4.1170    -7.7655     0.0128 C.ar    
  31 C31           -2.4183     1.3512     0.0324 C.ar    
  32 C32           -1.2246     2.0538     0.0305 C.ar    
  33 C33            1.2787     2.1455     0.0014 C.3     
  34 F34           -1.2383     3.4048     0.0383 F       
  35 O35            7.5308    -9.7446    -5.0503 O.3     
  36 C36            8.9386    -9.9601    -5.1670 C.3     
  37 H37            0.9441    -0.5321    -0.0102 H       
  38 H38           -3.3403    -0.5759     0.0305 H       
  39 H39           -3.3057    -2.6992     0.0294 H       
  40 H40           -3.7889    -4.8409     1.6619 H       
  41 H41           -5.1515    -6.8905     1.6665 H       
  42 H42           -2.9246    -8.3890    -1.6484 H       
  43 H43           -1.5567    -6.3430    -1.6609 H       
  44 H44            1.4155    -5.1549     0.4683 H       
  45 H45            0.0176    -6.2566     0.4778 H       
  46 H46            1.4412    -8.2013    -3.3244 H       
  47 H47            1.5064    -6.4831    -3.7975 H       
  48 H48            2.0377    -7.1051     0.3148 H       
  49 H49            1.7924    -8.6125    -0.6061 H       
  50 H50            4.1635    -6.7000    -0.8218 H       
  51 H51            4.1843    -8.3520    -0.1581 H       
  52 H52            3.6504    -7.7327    -4.2577 H       
  53 H53            3.8648    -6.3479    -3.1593 H       
  54 H54            5.0118    -9.2108    -4.4559 H       
  55 H55            9.0245    -9.1212    -2.9564 H       
  56 H56            8.1541    -8.2111    -0.8471 H       
  57 H57           -4.7159    -8.6642     0.0168 H       
  58 H58           -3.3577     1.8840     0.0442 H       
  59 H59            1.5812     2.3367    -1.0282 H       
  60 H60            1.1412     3.0934     0.5216 H       
  61 H61            2.0507     1.5634     0.5047 H       
  62 H62            9.4632    -9.0137    -5.0358 H       
  63 H63            9.2631   -10.6646    -4.4012 H       
  64 H64            9.1634   -10.3665    -6.1532 H       
@<TRIPOS>BOND
   1    1    2 ar
   2    1   33 1
   3    1   32 ar
   4    2    3 ar
   5    2   37 1
   6    3    4 ar
   7    3    5 1
   8    4   31 ar
   9    4   38 1
  10    5    6 1
  11    5    7 2
  12    6    9 2
  13    7    8 1
  14    7   39 1
  15    8    9 1
  16    8   10 1
  17    9   15 1
  18   10   11 ar
  19   10   14 ar
  20   11   12 ar
  21   11   40 1
  22   12   30 ar
  23   12   41 1
  24   13   14 ar
  25   13   30 ar
  26   13   42 1
  27   14   43 1
  28   15   16 1
  29   15   44 1
  30   15   45 1
  31   16   17 am
  32   16   18 2
  33   17   19 1
  34   17   20 1
  35   19   23 1
  36   19   46 1
  37   19   47 1
  38   20   21 1
  39   20   48 1
  40   20   49 1
  41   21   22 1
  42   21   50 1
  43   21   51 1
  44   22   23 1
  45   22   24 1
  46   23   52 1
  47   23   53 1
  48   24   25 ar
  49   24   26 ar
  50   25   29 ar
  51   26   27 ar
  52   26   54 1
  53   27   28 ar
  54   27   35 1
  55   28   29 ar
  56   28   55 1
  57   29   56 1
  58   30   57 1
  59   31   32 ar
  60   31   58 1
  61   32   34 1
  62   33   59 1
  63   33   60 1
  64   33   61 1
  65   35   36 1
  66   36   62 1
  67   36   63 1
  68   36   64 1

#	End of record

