#	Name: ASD03240066
#	Creating user name:	WinNT
#	Creation time:	15. 06. 2019 20:34

#	Modifying user name:	WinNT
#	Modification time:	15. 06. 2019 20:34

#	Program:	/corina/corina34_cracker 3.40 0067  02.08.2006

@<TRIPOS>MOLECULE
ASD03240066
  69   75    0    0    0
SMALL
NO_CHARGES


@<TRIPOS>ATOM
   1 C1            -0.0172     1.4159     0.0098 C.ar    
   2 C2             0.0021    -0.0041     0.0020 C.ar    
   3 C3             1.1993     2.1199     0.0020 C.ar    
   4 C4             2.3747     1.3867    -0.0132 C.ar    
   5 C5             2.3144    -0.0259    -0.0203 C.ar    
   6 N6             1.1600    -0.6637    -0.0127 N.ar    
   7 C7             3.5739    -0.8057    -0.0366 C.ar    
   8 C8             3.6859     2.0781    -0.0225 C.ar    
   9 C9             3.9343     3.0948    -0.9435 C.ar    
  10 C10            5.1569     3.7349    -0.9474 C.ar    
  11 C11            6.1349     3.3695    -0.0399 C.ar    
  12 C12            5.8941     2.3614     0.8763 C.ar    
  13 C13            4.6733     1.7181     0.8935 C.ar    
  14 C14            3.6557    -2.0180     0.6479 C.ar    
  15 C15            4.8316    -2.7398     0.6291 C.ar    
  16 C16            5.9280    -2.2631    -0.0670 C.ar    
  17 C17            5.8531    -1.0610    -0.7476 C.ar    
  18 C18            4.6808    -0.3332    -0.7412 C.ar    
  19 C19            7.2092    -3.0563    -0.0836 C.3     
  20 N20            7.1966    -3.9833    -1.2230 N.3     
  21 C21            8.5150    -4.6014    -1.4133 C.3     
  22 C22            8.5048    -5.4451    -2.6901 C.3     
  23 C23            7.4260    -6.5254    -2.5736 C.3     
  24 C24            6.0703    -5.8574    -2.3275 C.3     
  25 C25            6.1510    -5.0017    -1.0613 C.3     
  26 C26            7.3705    -7.3217    -3.8518 C.2     
  27 N27            7.5800    -8.6303    -3.9534 N.2     
  28 C28            7.4550    -9.0056    -5.2099 C.2     
  29 N29            7.1560    -7.9080    -5.9416 N.pl3   
  30 N30            7.1028    -6.8353    -5.0367 N.2     
  31 C31           -1.2339    -0.6790     0.0108 C.ar    
  32 C32           -2.3816     0.0532     0.0261 C.ar    
  33 N33           -2.3686     1.3790     0.0331 N.ar    
  34 C34           -1.2556     2.0758     0.0310 C.ar    
  35 C35            7.6142   -10.3827    -5.7287 C.ar    
  36 N36            7.4592   -10.6198    -7.0257 N.ar    
  37 C37            7.5923   -11.8304    -7.5268 C.ar    
  38 C38            7.9002   -12.9061    -6.7136 C.ar    
  39 C39            8.0709   -12.7030    -5.3515 C.ar    
  40 C40            7.9313   -11.4197    -4.8521 C.ar    
  41 H41            1.2171     3.1998     0.0073 H       
  42 H42            3.1716     3.3807    -1.6527 H       
  43 H43            5.3507     4.5224    -1.6607 H       
  44 H44            7.0903     3.8730    -0.0469 H       
  45 H45            6.6613     2.0804     1.5825 H       
  46 H46            4.4862     0.9315     1.6094 H       
  47 H47            2.8005    -2.3910     1.1919 H       
  48 H48            4.8962    -3.6786     1.1591 H       
  49 H49            6.7125    -0.6937    -1.2889 H       
  50 H50            4.6234     0.6049    -1.2732 H       
  51 H51            8.0562    -2.3766    -0.1775 H       
  52 H52            7.2984    -3.6218     0.8440 H       
  53 H53            9.2724    -3.8222    -1.4989 H       
  54 H54            8.7442    -5.2382    -0.5590 H       
  55 H55            8.2892    -4.8064    -3.5466 H       
  56 H56            9.4787    -5.9162    -2.8227 H       
  57 H57            7.6622    -7.1877    -1.7407 H       
  58 H58            5.8164    -5.2252    -3.1784 H       
  59 H59            5.3049    -6.6231    -2.2011 H       
  60 H60            6.3914    -5.6367    -0.2086 H       
  61 H61            5.1915    -4.5134    -0.8912 H       
  62 H62            7.0050    -7.8700    -6.8990 H       
  63 H63           -1.2707    -1.7583     0.0050 H       
  64 H64           -3.3312    -0.4613     0.0325 H       
  65 H65           -1.2932     3.1551     0.0373 H       
  66 H66            7.4589   -11.9854    -8.5873 H       
  67 H67            8.0064   -13.8949    -7.1347 H       
  68 H68            8.3113   -13.5273    -4.6963 H       
  69 H69            8.0578   -11.2257    -3.7972 H       
@<TRIPOS>BOND
   1    1    2 ar
   2    1    3 ar
   3    1   34 ar
   4    2   31 ar
   5    2    6 ar
   6    3    4 ar
   7    3   41 1
   8    4    5 ar
   9    4    8 1
  10    5    6 ar
  11    5    7 1
  12    7   14 ar
  13    7   18 ar
  14    8    9 ar
  15    8   13 ar
  16    9   10 ar
  17    9   42 1
  18   10   11 ar
  19   10   43 1
  20   11   12 ar
  21   11   44 1
  22   12   13 ar
  23   12   45 1
  24   13   46 1
  25   14   15 ar
  26   14   47 1
  27   15   16 ar
  28   15   48 1
  29   16   17 ar
  30   16   19 1
  31   17   18 ar
  32   17   49 1
  33   18   50 1
  34   19   20 1
  35   19   51 1
  36   19   52 1
  37   20   21 1
  38   20   25 1
  39   21   22 1
  40   21   53 1
  41   21   54 1
  42   22   23 1
  43   22   55 1
  44   22   56 1
  45   23   24 1
  46   23   26 1
  47   23   57 1
  48   24   25 1
  49   24   58 1
  50   24   59 1
  51   25   60 1
  52   25   61 1
  53   26   27 1
  54   26   30 2
  55   27   28 2
  56   28   29 1
  57   28   35 1
  58   29   30 1
  59   29   62 1
  60   31   32 ar
  61   31   63 1
  62   32   33 ar
  63   32   64 1
  64   33   34 ar
  65   34   65 1
  66   35   36 ar
  67   35   40 ar
  68   36   37 ar
  69   37   38 ar
  70   37   66 1
  71   38   39 ar
  72   38   67 1
  73   39   40 ar
  74   39   68 1
  75   40   69 1

#	End of record

