#	Name: ASD07020001
#	Creating user name:	WinNT
#	Creation time:	15. 06. 2019 21:08

#	Modifying user name:	WinNT
#	Modification time:	15. 06. 2019 21:08

#	Program:	/corina/corina34_cracker 3.40 0067  02.08.2006

@<TRIPOS>MOLECULE
ASD07020001
  60   64    0    0    0
SMALL
NO_CHARGES


@<TRIPOS>ATOM
   1 C1             1.3893     3.2844     4.2941 C.ar    
   2 C2             2.2168     3.0983     3.2029 C.ar    
   3 C3             3.3498     2.3137     3.3164 C.ar    
   4 C4             3.6579     1.7118     4.5252 C.ar    
   5 C5             2.8239     1.8997     5.6252 C.ar    
   6 C6             1.6908     2.6869     5.5042 C.ar    
   7 C7            -5.3479     3.4023     0.2735 C.ar    
   8 C8            -5.0239     2.8466    -0.9485 C.ar    
   9 N9            -4.8016     1.5427    -1.0288 N.ar    
  10 C10           -4.8859     0.7708     0.0423 C.ar    
  11 N11           -5.1934     1.2629     1.2313 N.ar    
  12 C12           -5.4293     2.5616     1.3862 C.ar    
  13 O13            4.6942     0.9048     4.8964 O.3     
  14 C14            4.7074     0.9335     6.3359 C.3     
  15 O15            3.3382     1.2103     6.6851 O.3     
  16 C16           -4.3159    -1.2638    -1.2388 C.2     
  17 C17           -4.1729    -2.5613    -0.9113 C.2     
  18 N18           -4.4058    -2.6906     0.4037 N.2     
  19 C19           -4.6892    -1.5225     0.9103 C.2     
  20 N20           -4.6444    -0.5968    -0.0851 N.pl3   
  21 C21           -7.4036     4.2628     3.9934 C.3     
  22 C22           -6.9855     3.8675     2.5731 C.3     
  23 N23           -5.7506     3.0741     2.6325 N.3     
  24 C24           -4.6378     3.8606     3.1812 C.3     
  25 C25           -4.9597     4.2556     4.6264 C.3     
  26 N26           -6.2668     4.9295     4.6465 N.am    
  27 C27           -3.3581     3.0225     3.1540 C.3     
  28 C28           -2.1899     3.8754     3.5771 C.2     
  29 O29           -2.3415     5.0651     3.7573 O.2     
  30 N30           -0.9767     3.3160     3.7552 N.am    
  31 C31            0.1589     4.1452     4.1665 C.3     
  32 C32           -6.4191     6.1260     5.2478 C.2     
  33 O33           -7.6238     6.7271     5.2556 O.3     
  34 O34           -5.4690     6.6623     5.7830 O.2     
  35 C35           -7.7140     8.0142     5.9216 C.3     
  36 H36            1.9779     3.5666     2.2595 H       
  37 H37            3.9945     2.1698     2.4620 H       
  38 H38            1.0428     2.8346     6.3554 H       
  39 H39           -5.5296     4.4627     0.3676 H       
  40 H40           -4.9528     3.4678    -1.8291 H       
  41 H41            5.0168    -0.0322     6.7355 H       
  42 H42            5.3625     1.7263     6.6972 H       
  43 H43           -4.1916    -0.8300    -2.2201 H       
  44 H44           -3.9149    -3.3607    -1.5901 H       
  45 H45           -4.9205    -1.3237     1.9464 H       
  46 H46           -8.2520     4.9456     3.9486 H       
  47 H47           -7.6773     3.3704     4.5562 H       
  48 H48           -7.7764     3.2755     2.1126 H       
  49 H49           -6.8121     4.7664     1.9815 H       
  50 H50           -4.4971     4.7596     2.5812 H       
  51 H51           -4.9985     3.3625     5.2501 H       
  52 H52           -4.1924     4.9336     5.0002 H       
  53 H53           -3.4603     2.1808     3.8389 H       
  54 H54           -3.1890     2.6502     2.1436 H       
  55 H55           -0.8554     2.3645     3.6111 H       
  56 H56           -0.0602     4.6105     5.1276 H       
  57 H57            0.3330     4.9194     3.4193 H       
  58 H58           -7.0374     8.7205     5.4405 H       
  59 H59           -8.7361     8.3870     5.8548 H       
  60 H60           -7.4363     7.9013     6.9696 H       
@<TRIPOS>BOND
   1    1    2 ar
   2    1    6 ar
   3    1   31 1
   4    2    3 ar
   5    2   36 1
   6    3    4 ar
   7    3   37 1
   8    4    5 ar
   9    4   13 1
  10    5    6 ar
  11    5   15 1
  12    6   38 1
  13    7    8 ar
  14    7   12 ar
  15    7   39 1
  16    8    9 ar
  17    8   40 1
  18    9   10 ar
  19   10   11 ar
  20   10   20 1
  21   11   12 ar
  22   12   23 1
  23   13   14 1
  24   14   15 1
  25   14   41 1
  26   14   42 1
  27   16   17 2
  28   16   20 1
  29   16   43 1
  30   17   18 1
  31   17   44 1
  32   18   19 2
  33   19   20 1
  34   19   45 1
  35   21   22 1
  36   21   26 1
  37   21   46 1
  38   21   47 1
  39   22   23 1
  40   22   48 1
  41   22   49 1
  42   23   24 1
  43   24   25 1
  44   24   27 1
  45   24   50 1
  46   25   26 1
  47   25   51 1
  48   25   52 1
  49   26   32 am
  50   27   28 1
  51   27   53 1
  52   27   54 1
  53   28   29 2
  54   28   30 am
  55   30   31 1
  56   30   55 1
  57   31   56 1
  58   31   57 1
  59   32   33 1
  60   32   34 2
  61   33   35 1
  62   35   58 1
  63   35   59 1
  64   35   60 1

#	End of record

