#	Name: ASD01812064
#	Creating user name:	WinNT
#	Creation time:	15. 06. 2019 19:27

#	Modifying user name:	WinNT
#	Modification time:	15. 06. 2019 19:27

#	Program:	/corina/corina34_cracker 3.40 0067  02.08.2006

@<TRIPOS>MOLECULE
ASD01812064
  40   43    0    0    0
SMALL
NO_CHARGES


@<TRIPOS>ATOM
   1 N1             0.0019     1.3698     0.0128 N.pl3   
   2 C2             1.0938     2.1330     0.1457 C.2     
   3 C3             2.3671     1.5997     0.1554 C.2     
   4 C4             2.5290     0.1437     0.0148 C.2     
   5 C5             1.3008    -0.6600    -0.1291 C.ar    
   6 C6             1.3583    -2.0472    -0.2674 C.ar    
   7 C7             0.1923    -2.7677    -0.3992 C.ar    
   8 C8            -1.0354    -2.1205    -0.3949 C.ar    
   9 C9            -1.1083    -0.7499    -0.2595 C.ar    
  10 C10            0.0606    -0.0008    -0.1243 C.ar    
  11 C11            3.5412     2.4714     0.3030 C.2     
  12 O12            3.3957     3.6728     0.4180 O.2     
  13 O13            4.7795     1.9386     0.3110 O.3     
  14 O14            3.6313    -0.3759     0.0169 O.2     
  15 C15           -1.3118     2.0182     0.0191 C.3     
  16 C16           -1.3937     3.1785     2.2081 C.ar    
  17 C17           -1.8072     2.1354     1.4375 C.ar    
  18 C18           -2.6821     1.1746     1.9404 C.ar    
  19 C19           -3.1484     1.2509     3.2170 C.ar    
  20 C20           -2.7434     2.3132     4.0427 C.ar    
  21 C21           -3.2039     2.4259     5.3658 C.ar    
  22 C22           -2.7904     3.4688     6.1361 C.ar    
  23 C23           -1.9154     4.4300     5.6329 C.ar    
  24 C24           -1.4492     4.3538     4.3567 C.ar    
  25 C25           -1.8533     3.2906     3.5311 C.ar    
  26 F26           -2.3105    -0.1336    -0.2580 F       
  27 H27            0.9745     3.2015     0.2484 H       
  28 H28            2.3124    -2.5532    -0.2714 H       
  29 H29            0.2333    -3.8415    -0.5068 H       
  30 H30           -1.9432    -2.6961    -0.4990 H       
  31 H31            5.5206     2.5517     0.4106 H       
  32 H32           -1.2284     3.0124    -0.4199 H       
  33 H33           -2.0142     1.4216    -0.5630 H       
  34 H34           -0.7120     3.9135     1.8062 H       
  35 H35           -2.9953     0.3573     1.3077 H       
  36 H36           -3.8264     0.4991     3.5932 H       
  37 H37           -3.8827     1.6889     5.7689 H       
  38 H38           -3.1458     3.5530     7.1524 H       
  39 H39           -1.6031     5.2479     6.2653 H       
  40 H40           -0.7722     5.1064     3.9802 H       
@<TRIPOS>BOND
   1    1    2 1
   2    1   10 1
   3    1   15 1
   4    2    3 2
   5    2   27 1
   6    3    4 1
   7    3   11 1
   8    4    5 1
   9    4   14 2
  10    5    6 ar
  11    5   10 ar
  12    6    7 ar
  13    6   28 1
  14    7    8 ar
  15    7   29 1
  16    8    9 ar
  17    8   30 1
  18    9   10 ar
  19    9   26 1
  20   11   12 2
  21   11   13 1
  22   13   31 1
  23   15   17 1
  24   15   32 1
  25   15   33 1
  26   16   17 ar
  27   16   25 ar
  28   16   34 1
  29   17   18 ar
  30   18   19 ar
  31   18   35 1
  32   19   20 ar
  33   19   36 1
  34   20   21 ar
  35   20   25 ar
  36   21   22 ar
  37   21   37 1
  38   22   23 ar
  39   22   38 1
  40   23   24 ar
  41   23   39 1
  42   24   25 ar
  43   24   40 1

#	End of record

