#	Name: ASD01231342
#	Creating user name:	WinNT
#	Creation time:	15. 06. 2019 19:15

#	Modifying user name:	WinNT
#	Modification time:	15. 06. 2019 19:15

#	Program:	/corina/corina34_cracker 3.40 0067  02.08.2006

@<TRIPOS>MOLECULE
ASD01231342
  46   48    0    0    0
SMALL
NO_CHARGES


@<TRIPOS>ATOM
   1 C1            -0.6523    -0.4139    -0.7749 C.3     
   2 C2             0.2294    -1.6059    -1.1525 C.3     
   3 C3            -0.6210    -2.6676    -1.8530 C.3     
   4 S4             1.5475    -1.0533    -2.2696 S.o2    
   5 O5             2.5288    -2.0693    -2.4242 O.2     
   6 O6             0.9980    -0.3876    -3.3984 O.2     
   7 N7             2.3266     0.1425    -1.4297 N.am    
   8 C8             3.0531    -0.1807    -0.1992 C.3     
   9 C9             4.5482    -0.4115    -0.5050 C.3     
  10 C10            5.1525     0.9909    -0.2816 C.3     
  11 C11            4.2272     1.6681     0.7067 C.ar    
  12 C12            4.4263     2.7845     1.5003 C.ar    
  13 C13            3.4189     3.2293     2.3423 C.ar    
  14 C14            2.2087     2.5519     2.3881 C.ar    
  15 C15            2.0135     1.4391     1.5957 C.ar    
  16 C16            3.0205     0.9949     0.7542 C.ar    
  17 O17            3.6162     4.3254     3.1210 O.3     
  18 C18            3.0838     6.9338     0.6412 C.ar    
  19 C19            3.1553     5.6745     1.2006 C.ar    
  20 C20            3.5342     5.5467     2.5347 C.ar    
  21 C21            3.8264     6.7046     3.2520 C.ar    
  22 C22            3.7308     7.9271     2.6202 C.ar    
  23 N23            3.3686     8.0073     1.3536 N.ar    
  24 C24            2.6811     7.0847    -0.8032 C.3     
  25 F25            1.2913     7.2204    -0.8880 F       
  26 F26            3.2944     8.2207    -1.3421 F       
  27 F27            3.0838     5.9529    -1.5202 F       
  28 H28           -0.0465     0.3424    -0.2758 H       
  29 H29           -1.0942     0.0111    -1.6761 H       
  30 H30           -1.4443    -0.7460    -0.1037 H       
  31 H31            0.6713    -2.0309    -0.2513 H       
  32 H32           -1.0629    -2.2426    -2.7542 H       
  33 H33            0.0071    -3.5168    -2.1220 H       
  34 H34           -1.4130    -2.9997    -1.1818 H       
  35 H35            2.3019     1.0569    -1.7524 H       
  36 H36            2.6227    -1.0641     0.2724 H       
  37 H37            4.9785    -1.1339     0.1886 H       
  38 H38            4.6873    -0.7334    -1.5371 H       
  39 H39            6.1562     0.9082     0.1355 H       
  40 H40            5.1763     1.5463    -1.2192 H       
  41 H41            5.3689     3.3103     1.4636 H       
  42 H42            1.4213     2.8946     3.0429 H       
  43 H43            1.0714     0.9121     1.6316 H       
  44 H44            2.9206     4.7999     0.6121 H       
  45 H45            4.1234     6.6459     4.2887 H       
  46 H46            3.9555     8.8299     3.1687 H       
@<TRIPOS>BOND
   1    1    2 1
   2    1   28 1
   3    1   29 1
   4    1   30 1
   5    2    3 1
   6    2    4 1
   7    2   31 1
   8    3   32 1
   9    3   33 1
  10    3   34 1
  11    4    5 2
  12    4    6 2
  13    4    7 am
  14    7    8 1
  15    7   35 1
  16    8    9 1
  17    8   16 1
  18    8   36 1
  19    9   10 1
  20    9   37 1
  21    9   38 1
  22   10   11 1
  23   10   39 1
  24   10   40 1
  25   11   12 ar
  26   11   16 ar
  27   12   13 ar
  28   12   41 1
  29   13   14 ar
  30   13   17 1
  31   14   15 ar
  32   14   42 1
  33   15   16 ar
  34   15   43 1
  35   17   20 1
  36   18   19 ar
  37   18   23 ar
  38   18   24 1
  39   19   20 ar
  40   19   44 1
  41   20   21 ar
  42   21   22 ar
  43   21   45 1
  44   22   23 ar
  45   22   46 1
  46   24   25 1
  47   24   26 1
  48   24   27 1

#	End of record

