#	Name: ASD00431366
#	Creating user name:	WinNT
#	Creation time:	15. 06. 2019 18:35

#	Modifying user name:	WinNT
#	Modification time:	15. 06. 2019 18:35

#	Program:	/corina/corina34_cracker 3.40 0067  02.08.2006

@<TRIPOS>MOLECULE
ASD00431366
  21   22    0    0    0
SMALL
NO_CHARGES


@<TRIPOS>ATOM
   1 N1             0.7472     1.3401    -0.3950 N.pl3   
   2 C2             0.5726    -0.0456    -0.3003 C.ar    
   3 C3             1.6290    -0.9010    -0.5904 C.ar    
   4 C4             1.4556    -2.2684    -0.4961 C.ar    
   5 C5             0.2273    -2.7872    -0.1119 C.ar    
   6 C6            -0.8271    -1.9338     0.1772 C.ar    
   7 C7            -0.6538    -0.5660     0.0890 C.ar    
   8 O8             0.0572    -4.1331    -0.0192 O.3     
   9 S9             0.5838    -6.4619     1.2897 S.3     
  10 C10            0.5817    -4.7682     1.0571 C.2     
  11 N11            1.1548    -4.1801     2.0589 N.2     
  12 C12            1.6116    -4.9552     3.0256 C.2     
  13 C13            1.4146    -6.2599     2.8301 C.2     
  14 Cl14           3.1654    -0.2516    -1.0716 Cl      
  15 H15            1.6056     1.7036    -0.6632 H       
  16 H16            0.0086     1.9367    -0.1963 H       
  17 H17            2.2760    -2.9336    -0.7218 H       
  18 H18           -1.7828    -2.3386     0.4759 H       
  19 H19           -1.4738     0.0982     0.3190 H       
  20 H20            2.1048    -4.5643     3.9033 H       
  21 H21            1.7119    -7.0537     3.4994 H       
@<TRIPOS>BOND
   1    1    2 1
   2    1   15 1
   3    1   16 1
   4    2    3 ar
   5    2    7 ar
   6    3    4 ar
   7    3   14 1
   8    4    5 ar
   9    4   17 1
  10    5    6 ar
  11    5    8 1
  12    6    7 ar
  13    6   18 1
  14    7   19 1
  15    8   10 1
  16    9   10 1
  17    9   13 1
  18   10   11 2
  19   11   12 1
  20   12   13 2
  21   12   20 1
  22   13   21 1

#	End of record

