#	Name: ASD02560094
#	Creating user name:	WinNT
#	Creation time:	15. 06. 2019 20:24

#	Modifying user name:	WinNT
#	Modification time:	15. 06. 2019 20:24

#	Program:	/corina/corina34_cracker 3.40 0067  02.08.2006

@<TRIPOS>MOLECULE
ASD02560094
  35   38    0    0    0
SMALL
NO_CHARGES


@<TRIPOS>ATOM
   1 N1             0.2977    -0.5860    -1.9673 N.1     
   2 C2             0.2014     0.3900    -1.3941 C.1     
   3 C3             0.0801     1.6204    -0.6715 C.2     
   4 C4             1.1742     2.1431     0.0119 C.2     
   5 C5             1.0315     3.3469     0.7112 C.2     
   6 N6             1.9271     4.0907     1.4657 N.pl3   
   7 C7             1.3052     5.2172     1.9593 C.ar    
   8 C8            -0.0304     5.2105     1.5168 C.ar    
   9 C9            -0.1984     3.9984     0.7109 C.2     
  10 N10           -1.2694     3.4718     0.0337 N.am    
  11 C11           -1.1543     2.3186    -0.6515 C.2     
  12 O12           -2.1175     1.8671    -1.2471 O.2     
  13 C13           -2.4956     4.1465     0.0491 C.ar    
  14 C14           -3.4279     3.8732     1.0416 C.ar    
  15 C15           -4.6369     4.5407     1.0539 C.ar    
  16 C16           -4.9198     5.4799     0.0791 C.ar    
  17 C17           -3.9939     5.7540    -0.9108 C.ar    
  18 C18           -2.7804     5.0948    -0.9249 C.ar    
  19 N19           -6.2169     6.1931     0.0951 N.pl3   
  20 O20           -7.0335     5.9524     0.9661 O.2     
  21 O21           -6.4674     7.0205    -0.7628 O.2     
  22 C22           -0.8900     6.2515     1.8793 C.ar    
  23 C23           -0.4295     7.2716     2.6622 C.ar    
  24 C24            0.8874     7.2831     3.1016 C.ar    
  25 C25            1.7521     6.2679     2.7562 C.ar    
  26 H26            2.1220     1.6256     0.0029 H       
  27 H27            2.8541     3.8526     1.6232 H       
  28 H28           -3.2078     3.1393     1.8028 H       
  29 H29           -5.3623     4.3287     1.8254 H       
  30 H30           -4.2182     6.4875    -1.6710 H       
  31 H31           -2.0577     5.3093    -1.6982 H       
  32 H32           -1.9156     6.2493     1.5409 H       
  33 H33           -1.0946     8.0754     2.9413 H       
  34 H34            1.2375     8.0962     3.7201 H       
  35 H35            2.7745     6.2865     3.1037 H       
@<TRIPOS>BOND
   1    1    2 3
   2    2    3 1
   3    3    4 2
   4    3   11 1
   5    4    5 1
   6    4   26 1
   7    5    6 1
   8    5    9 2
   9    6    7 1
  10    6   27 1
  11    7    8 ar
  12    7   25 ar
  13    8    9 1
  14    8   22 ar
  15    9   10 1
  16   10   11 am
  17   10   13 1
  18   11   12 2
  19   13   14 ar
  20   13   18 ar
  21   14   15 ar
  22   14   28 1
  23   15   16 ar
  24   15   29 1
  25   16   17 ar
  26   16   19 1
  27   17   18 ar
  28   17   30 1
  29   18   31 1
  30   19   20 2
  31   19   21 2
  32   22   23 ar
  33   22   32 1
  34   23   24 ar
  35   23   33 1
  36   24   25 ar
  37   24   34 1
  38   25   35 1

#	End of record

