#	Name: ASD01901334
#	Creating user name:	WinNT
#	Creation time:	15. 06. 2019 19:53

#	Modifying user name:	WinNT
#	Modification time:	15. 06. 2019 19:53

#	Program:	/corina/corina34_cracker 3.40 0067  02.08.2006

@<TRIPOS>MOLECULE
ASD01901334
  37   40    0    0    0
SMALL
NO_CHARGES


@<TRIPOS>ATOM
   1 C1            -0.0169     1.3919     0.0097 C.ar    
   2 N2             1.1101     2.0776     0.0026 N.ar    
   3 C3             2.2871     1.4812    -0.0118 C.ar    
   4 C4             2.3879     0.1027    -0.0201 C.ar    
   5 C5             1.2334    -0.6623    -0.0132 C.ar    
   6 C6             0.0021    -0.0041     0.0020 C.ar    
   7 C7            -1.2657    -0.7757     0.0104 C.2     
   8 N8            -2.8422    -2.0957    -1.1500 N.2     
   9 C9            -1.7221    -1.4155    -1.1625 C.2     
  10 C10           -2.0049    -0.8816     1.1552 C.2     
  11 N11           -3.1645    -1.5984     1.1284 N.pl3   
  12 C12           -3.5766    -2.2009    -0.0323 C.2     
  13 C13           -4.1008    -1.8822     2.0859 C.2     
  14 C14           -5.0509    -2.6407     1.4990 C.2     
  15 N15           -4.7201    -2.8230     0.2172 N.2     
  16 C16           -6.2805    -3.1890     2.1762 C.3     
  17 O17           -6.2912    -2.7823     3.5460 O.3     
  18 C18           -7.3406    -3.1959     4.3042 C.ar    
  19 C19           -8.3365    -3.9816     3.7426 C.ar    
  20 C20           -7.4147    -2.8376     5.6424 C.ar    
  21 C21           -8.4825    -3.2592     6.4109 C.ar    
  22 C22           -9.4764    -4.0379     5.8476 C.ar    
  23 C23           -9.4021    -4.4007     4.5154 C.ar    
  24 F24           -1.1989     2.0458     0.0301 F       
  25 H25            3.1860     2.0798    -0.0175 H       
  26 H26            3.3574    -0.3732    -0.0322 H       
  27 H27            1.2843    -1.7411    -0.0198 H       
  28 H28           -1.1462    -1.3438    -2.0734 H       
  29 H29           -1.6755    -0.4054     2.0668 H       
  30 H30           -4.0824    -1.5605     3.1167 H       
  31 H31           -7.1710    -2.8071     1.6769 H       
  32 H32           -6.2712    -4.2775     2.1203 H       
  33 H33           -8.2789    -4.2652     2.7021 H       
  34 H34           -6.6382    -2.2300     6.0831 H       
  35 H35           -8.5407    -2.9806     7.4527 H       
  36 H36          -10.3100    -4.3671     6.4502 H       
  37 H37          -10.1777    -5.0124     4.0787 H       
@<TRIPOS>BOND
   1    1    6 ar
   2    1    2 ar
   3    1   24 1
   4    2    3 ar
   5    3    4 ar
   6    3   25 1
   7    4    5 ar
   8    4   26 1
   9    5    6 ar
  10    5   27 1
  11    6    7 1
  12    7   10 2
  13    7    9 1
  14    8    9 2
  15    8   12 1
  16    9   28 1
  17   10   11 1
  18   10   29 1
  19   11   13 1
  20   11   12 1
  21   12   15 2
  22   13   14 2
  23   13   30 1
  24   14   15 1
  25   14   16 1
  26   16   17 1
  27   16   31 1
  28   16   32 1
  29   17   18 1
  30   18   20 ar
  31   18   19 ar
  32   19   23 ar
  33   19   33 1
  34   20   21 ar
  35   20   34 1
  36   21   22 ar
  37   21   35 1
  38   22   23 ar
  39   22   36 1
  40   23   37 1

#	End of record

