#	Name: ASD01870210
#	Creating user name:	WinNT
#	Creation time:	15. 06. 2019 19:38

#	Modifying user name:	WinNT
#	Modification time:	15. 06. 2019 19:38

#	Program:	/corina/corina34_cracker 3.40 0067  02.08.2006

@<TRIPOS>MOLECULE
ASD01870210
  52   56    0    0    0
SMALL
NO_CHARGES


@<TRIPOS>ATOM
   1 C1            -0.0166     1.3889     0.0246 C.ar    
   2 C2             0.0022    -0.0041     0.0135 C.ar    
   3 C3             1.1788    -0.6896    -0.0071 C.ar    
   4 C4             2.3941     0.0134    -0.0178 C.ar    
   5 C5             2.3757     1.4325    -0.0069 C.ar    
   6 C6             1.1408     2.1049     0.0147 C.ar    
   7 C7             3.6272    -0.6639    -0.0394 C.ar    
   8 C8             4.7899     0.0348    -0.0495 C.ar    
   9 C9             4.7883     1.4437    -0.0390 C.ar    
  10 C10            3.5864     2.1337    -0.0181 C.ar    
  11 C11            5.8878     2.4281    -0.0462 C.2     
  12 N12            5.3953     3.6785    -0.0305 N.am    
  13 C13            3.9300     3.6020    -0.0118 C.3     
  14 C14            6.1500     4.8516    -0.0315 C.ar    
  15 N15            7.4685     4.7834     0.0508 N.ar    
  16 C16            8.2199     5.8682     0.0530 C.ar    
  17 C17            7.6536     7.1247    -0.0310 C.ar    
  18 C18            6.2737     7.2447    -0.1190 C.ar    
  19 C19            5.5085     6.0868    -0.1250 C.ar    
  20 C20            3.6563    -2.1705    -0.0510 C.3     
  21 C21            3.5231    -2.6647    -1.4685 C.ar    
  22 C22            4.6464    -2.8696    -2.2443 C.ar    
  23 N23            4.5408    -3.3020    -3.4866 N.ar    
  24 C24            3.3645    -3.5550    -4.0356 C.ar    
  25 C25            2.1921    -3.3712    -3.3134 C.ar    
  26 C26            2.2698    -2.9241    -2.0062 C.ar    
  27 O27            7.0706     2.1479    -0.0635 O.2     
  28 O28            4.1531     6.1558    -0.2102 O.3     
  29 C29            3.5737     7.4595    -0.2914 C.3     
  30 O30            3.3022    -3.9978    -5.3166 O.3     
  31 C31            4.5426    -4.1661    -6.0059 C.3     
  32 H32           -0.9635     1.9082     0.0367 H       
  33 H33           -0.9304    -0.5487     0.0216 H       
  34 H34            1.1771    -1.7696    -0.0148 H       
  35 H35            1.1110     3.1845     0.0236 H       
  36 H36            5.7301    -0.4964    -0.0654 H       
  37 H37            3.5179     4.0872    -0.8965 H       
  38 H38            3.5414     4.0740     0.8906 H       
  39 H39            9.2934     5.7719     0.1220 H       
  40 H40            8.2783     8.0057    -0.0279 H       
  41 H41            5.8066     8.2161    -0.1854 H       
  42 H42            4.6003    -2.5189     0.3680 H       
  43 H43            2.8297    -2.5545     0.5468 H       
  44 H44            5.6240    -2.6732    -1.8294 H       
  45 H45            1.2331    -3.5784    -3.7649 H       
  46 H46            1.3753    -2.7724    -1.4203 H       
  47 H47            3.8409     8.0318     0.5970 H       
  48 H48            3.9493     7.9693    -1.1786 H       
  49 H49            2.4891     7.3718    -0.3545 H       
  50 H50            5.0655    -3.2108    -6.0513 H       
  51 H51            5.1579    -4.8922    -5.4746 H       
  52 H52            4.3505    -4.5237    -7.0175 H       
@<TRIPOS>BOND
   1    1    2 ar
   2    1    6 ar
   3    1   32 1
   4    2    3 ar
   5    2   33 1
   6    3    4 ar
   7    3   34 1
   8    4    5 ar
   9    4    7 ar
  10    5    6 ar
  11    5   10 ar
  12    6   35 1
  13    7    8 ar
  14    7   20 1
  15    8    9 ar
  16    8   36 1
  17    9   10 ar
  18    9   11 1
  19   10   13 1
  20   11   12 am
  21   11   27 2
  22   12   13 1
  23   12   14 1
  24   13   37 1
  25   13   38 1
  26   14   15 ar
  27   14   19 ar
  28   15   16 ar
  29   16   17 ar
  30   16   39 1
  31   17   18 ar
  32   17   40 1
  33   18   19 ar
  34   18   41 1
  35   19   28 1
  36   20   21 1
  37   20   42 1
  38   20   43 1
  39   21   22 ar
  40   21   26 ar
  41   22   23 ar
  42   22   44 1
  43   23   24 ar
  44   24   25 ar
  45   24   30 1
  46   25   26 ar
  47   25   45 1
  48   26   46 1
  49   28   29 1
  50   29   47 1
  51   29   48 1
  52   29   49 1
  53   30   31 1
  54   31   50 1
  55   31   51 1
  56   31   52 1

#	End of record

