#	Name: ASD03430836
#	Creating user name:	WinNT
#	Creation time:	15. 06. 2019 20:41

#	Modifying user name:	WinNT
#	Modification time:	15. 06. 2019 20:41

#	Program:	/corina/corina34_cracker 3.40 0067  02.08.2006

@<TRIPOS>MOLECULE
ASD03430836
  50   54    0    0    0
SMALL
NO_CHARGES


@<TRIPOS>ATOM
   1 C1            -0.0167     1.3821     0.0096 C.ar    
   2 C2             0.0021    -0.0041     0.0020 C.ar    
   3 C3             1.2028    -0.6818    -0.0162 C.ar    
   4 C4             2.4087     0.0129    -0.0162 C.ar    
   5 C5             2.3861     1.4039    -0.0119 C.ar    
   6 C6             1.1815     2.0867     0.0020 C.ar    
   7 O7             3.4713    -0.8419    -0.0074 O.3     
   8 C8             1.5511    -2.1458    -0.0509 C.3     
   9 C9             3.0363    -2.1458    -0.4380 C.3     
  10 C10            0.4268    -3.8598     1.0070 C.ar    
  11 C11            1.3158    -2.8198     1.2682 C.ar    
  12 C12            0.7167    -2.9064    -1.0410 C.2     
  13 N13            0.0966    -3.8836    -0.3502 N.am    
  14 O14            0.6192    -2.6843    -2.2294 O.2     
  15 C15            1.7821    -2.6009     2.5448 C.ar    
  16 C16            1.3690    -3.4172     3.5832 C.ar    
  17 C17            0.4871    -4.4527     3.3353 C.ar    
  18 C18            0.0170    -4.6765     2.0576 C.ar    
  19 C19           -0.8166    -4.8579    -0.9526 C.3     
  20 C20           -2.2457    -4.3132    -0.9075 C.3     
  21 C21           -3.1994    -5.3307    -1.5367 C.3     
  22 C22           -4.6411    -4.8430    -1.3802 C.3     
  23 C23           -2.8719    -5.4854    -3.0232 C.3     
  24 O24           -1.2113     2.0356     0.0189 O.3     
  25 C25           -1.1865     3.4165     0.3963 C.3     
  26 C26           -0.0349     4.0988    -0.3543 C.3     
  27 O27            1.1866     3.4483     0.0115 O.3     
  28 H28           -0.9268    -0.5550     0.0107 H       
  29 H29            3.3148     1.9551    -0.0190 H       
  30 H30            3.1554    -2.2571    -1.5158 H       
  31 H31            3.5752    -2.9292     0.0949 H       
  32 H32            2.4713    -1.7916     2.7361 H       
  33 H33            1.7349    -3.2459     4.5848 H       
  34 H34            0.1649    -5.0898     4.1457 H       
  35 H35           -0.6714    -5.4876     1.8718 H       
  36 H36           -0.5276    -5.0346    -1.9886 H       
  37 H37           -0.7671    -5.7943    -0.3969 H       
  38 H38           -2.5347    -4.1366     0.1285 H       
  39 H39           -2.2952    -3.3768    -1.4632 H       
  40 H40           -3.0851    -6.2929    -1.0374 H       
  41 H41           -4.7554    -3.8809    -1.8794 H       
  42 H42           -5.3206    -5.5679    -1.8284 H       
  43 H43           -4.8745    -4.7328    -0.3211 H       
  44 H44           -1.8448    -5.8329    -3.1347 H       
  45 H45           -3.5514    -6.2103    -3.4714 H       
  46 H46           -2.9862    -4.5233    -3.5225 H       
  47 H47           -2.1315     3.8882     0.1269 H       
  48 H48           -1.0261     3.5010     1.4711 H       
  49 H49           -0.1916     4.0078    -1.4291 H       
  50 H50            0.0118     5.1519    -0.0769 H       
@<TRIPOS>BOND
   1    1    2 ar
   2    1    6 ar
   3    1   24 1
   4    2    3 ar
   5    2   28 1
   6    3    4 ar
   7    3    8 1
   8    4    5 ar
   9    4    7 1
  10    5    6 ar
  11    5   29 1
  12    6   27 1
  13    7    9 1
  14    8    9 1
  15    8   11 1
  16    8   12 1
  17    9   30 1
  18    9   31 1
  19   10   11 ar
  20   10   13 1
  21   10   18 ar
  22   11   15 ar
  23   12   13 am
  24   12   14 2
  25   13   19 1
  26   15   16 ar
  27   15   32 1
  28   16   17 ar
  29   16   33 1
  30   17   18 ar
  31   17   34 1
  32   18   35 1
  33   19   20 1
  34   19   36 1
  35   19   37 1
  36   20   21 1
  37   20   38 1
  38   20   39 1
  39   21   22 1
  40   21   23 1
  41   21   40 1
  42   22   41 1
  43   22   42 1
  44   22   43 1
  45   23   44 1
  46   23   45 1
  47   23   46 1
  48   24   25 1
  49   25   26 1
  50   25   47 1
  51   25   48 1
  52   26   27 1
  53   26   49 1
  54   26   50 1

#	End of record

