#	Name: ASD09740229
#	Creating user name:	WinNT
#	Creation time:	15. 06. 2019 21:23

#	Modifying user name:	WinNT
#	Modification time:	15. 06. 2019 21:23

#	Program:	/corina/corina34_cracker 3.40 0067  02.08.2006

@<TRIPOS>MOLECULE
ASD09740229
  63   66    0    0    0
SMALL
NO_CHARGES


@<TRIPOS>ATOM
   1 N1             1.7926     0.6832     0.5161 N.2     
   2 O2             1.2417    -0.3651     0.2547 O.3     
   3 C3             1.2280     1.6684    -0.1340 C.2     
   4 N4             0.2240     1.1442    -0.8676 N.2     
   5 C5             0.2405    -0.1514    -0.6135 C.2     
   6 C6            -0.6682    -1.1702    -1.1770 C.ar    
   7 C7             1.6197     3.0989    -0.0753 C.ar    
   8 C8            -0.5282    -2.5115    -0.8122 C.ar    
   9 C9            -1.6725    -0.7942    -2.0709 C.ar    
  10 C10           -2.5204    -1.7466    -2.5959 C.ar    
  11 C11           -2.3782    -3.0794    -2.2378 C.ar    
  12 C12           -1.3806    -3.4609    -1.3421 C.ar    
  13 C13            2.9618     3.4590    -0.1914 C.ar    
  14 C14            3.3264     4.7859    -0.1371 C.ar    
  15 C15            2.3513     5.7711     0.0342 C.ar    
  16 C16            1.0077     5.4092     0.1503 C.ar    
  17 C17            0.6449     4.0816     0.0900 C.ar    
  18 C18            2.7414     7.1956     0.0932 C.2     
  19 O19           -3.2164    -4.0140    -2.7574 O.3     
  20 C20           -4.2193    -3.5531    -3.6650 C.3     
  21 C21           -5.0601    -4.7393    -4.1412 C.3     
  22 O22           -1.2439    -4.7682    -0.9930 O.3     
  23 C23           -0.2004    -5.0876    -0.0704 C.3     
  24 C24           -0.2019    -6.5935     0.2000 C.3     
  25 C25           -0.8051     3.6907     0.2152 C.3     
  26 N26            3.7996     7.5743     0.8370 N.am    
  27 O27            2.1078     8.0255    -0.5293 O.2     
  28 C28            4.1512     8.9952     0.9813 C.3     
  29 C29            4.3036     9.3099     2.4732 C.3     
  30 N30            5.2592     8.3695     3.0736 N.3     
  31 C31            4.7669     6.9876     2.9965 C.3     
  32 C32            4.6298     6.5781     1.5310 C.3     
  33 C33            5.5642     8.7430     4.4612 C.3     
  34 H34            0.2449    -2.8057    -0.1178 H       
  35 H35           -1.7855     0.2427    -2.3511 H       
  36 H36           -3.2971    -1.4542    -3.2870 H       
  37 H37            3.7157     2.6970    -0.3235 H       
  38 H38            4.3660     5.0646    -0.2266 H       
  39 H39            0.2528     6.1701     0.2829 H       
  40 H40           -4.8619    -2.8315    -3.1605 H       
  41 H41           -3.7427    -3.0780    -4.5225 H       
  42 H42           -4.4176    -5.4609    -4.6456 H       
  43 H43           -5.5367    -5.2144    -3.2837 H       
  44 H44           -5.8252    -4.3878    -4.8334 H       
  45 H45            0.7607    -4.7953    -0.4934 H       
  46 H46           -0.3645    -4.5506     0.8639 H       
  47 H47           -1.1629    -6.8858     0.6230 H       
  48 H48           -0.0377    -7.1305    -0.7343 H       
  49 H49            0.5941    -6.8371     0.9037 H       
  50 H50           -1.2777     3.7284    -0.7663 H       
  51 H51           -0.8755     2.6785     0.6136 H       
  52 H52           -1.3110     4.3823     0.8889 H       
  53 H53            5.0916     9.1937     0.4672 H       
  54 H54            3.3605     9.6131     0.5556 H       
  55 H55            4.6712    10.3289     2.5943 H       
  56 H56            3.3367     9.2105     2.9665 H       
  57 H57            5.4704     6.3224     3.4971 H       
  58 H58            3.7935     6.9206     3.4825 H       
  59 H59            4.1579     5.5976     1.4673 H       
  60 H60            5.6153     6.5441     1.0666 H       
  61 H61            4.6471     8.7330     5.0502 H       
  62 H62            6.2738     8.0304     4.8817 H       
  63 H63            5.9981     9.7427     4.4814 H       
@<TRIPOS>BOND
   1    1    2 1
   2    1    3 2
   3    2    5 1
   4    3    4 1
   5    3    7 1
   6    4    5 2
   7    5    6 1
   8    6    8 ar
   9    6    9 ar
  10    7   13 ar
  11    7   17 ar
  12    8   12 ar
  13    8   34 1
  14    9   10 ar
  15    9   35 1
  16   10   11 ar
  17   10   36 1
  18   11   12 ar
  19   11   19 1
  20   12   22 1
  21   13   14 ar
  22   13   37 1
  23   14   15 ar
  24   14   38 1
  25   15   16 ar
  26   15   18 1
  27   16   17 ar
  28   16   39 1
  29   17   25 1
  30   18   26 am
  31   18   27 2
  32   19   20 1
  33   20   21 1
  34   20   40 1
  35   20   41 1
  36   21   42 1
  37   21   43 1
  38   21   44 1
  39   22   23 1
  40   23   24 1
  41   23   45 1
  42   23   46 1
  43   24   47 1
  44   24   48 1
  45   24   49 1
  46   25   50 1
  47   25   51 1
  48   25   52 1
  49   26   28 1
  50   26   32 1
  51   28   29 1
  52   28   53 1
  53   28   54 1
  54   29   30 1
  55   29   55 1
  56   29   56 1
  57   30   31 1
  58   30   33 1
  59   31   32 1
  60   31   57 1
  61   31   58 1
  62   32   59 1
  63   32   60 1
  64   33   61 1
  65   33   62 1
  66   33   63 1

#	End of record

