#	Name: ASD01883171
#	Creating user name:	WinNT
#	Creation time:	15. 06. 2019 19:45

#	Modifying user name:	WinNT
#	Modification time:	15. 06. 2019 19:45

#	Program:	/corina/corina34_cracker 3.40 0067  02.08.2006

@<TRIPOS>MOLECULE
ASD01883171
  48   49    0    0    0
SMALL
NO_CHARGES


@<TRIPOS>ATOM
   1 N1            -0.0191     1.3471     0.0316 N.am    
   2 C2            -0.0035     0.0076    -0.0982 C.2     
   3 C3            -1.2213    -0.7166    -0.0987 C.2     
   4 C4            -2.4279    -0.0078     0.0383 C.2     
   5 C5            -2.3778     1.3938     0.1704 C.2     
   6 C6            -1.1845     2.0302     0.1694 C.2     
   7 O7             1.0572    -0.5819    -0.2158 O.2     
   8 C8            -1.2233    -2.1419    -0.2363 C.1     
   9 N9            -1.2248    -3.2727    -0.3454 N.1     
  10 C10            1.2478     2.0828     0.0304 C.3     
  11 C11            1.6072     2.4770    -1.4036 C.3     
  12 C12            2.9303     3.2453    -1.4050 C.3     
  13 C13            4.0581     2.3195    -0.9449 C.3     
  14 C14            3.2273     3.7470    -2.8195 C.3     
  15 C15           -3.7233    -0.7193     0.0430 C.ar    
  16 C16           -4.5191    -0.7163     1.1906 C.ar    
  17 C17           -5.7297    -1.3831     1.1902 C.ar    
  18 C18           -6.1538    -2.0565     0.0459 C.ar    
  19 C19           -5.3625    -2.0592    -1.0945 C.ar    
  20 C20           -4.1569    -1.3913    -1.1022 C.ar    
  21 O21           -7.3439    -2.7120     0.0470 O.3     
  22 O22           -6.5067    -1.3826     2.3060 O.3     
  23 C23           -8.4371    -1.9912    -0.2500 C.2     
  24 C24           -6.0098    -0.6726     3.4423 C.3     
  25 C25           -9.7764    -2.6706    -0.3757 C.3     
  26 O26           -8.3470    -0.7979    -0.4165 O.2     
  27 H27           -3.2916     1.9594     0.2765 H       
  28 H28           -1.1585     3.1050     0.2717 H       
  29 H29            1.1469     2.9810     0.6396 H       
  30 H30            2.0351     1.4512     0.4418 H       
  31 H31            1.7080     1.5788    -2.0129 H       
  32 H32            0.8199     3.1086    -1.8150 H       
  33 H33            2.8578     4.0949    -0.7259 H       
  34 H34            5.0007     2.8668    -0.9458 H       
  35 H35            3.8465     1.9621     0.0629 H       
  36 H36            4.1307     1.4699    -1.6239 H       
  37 H37            2.4238     4.4066    -3.1473 H       
  38 H38            4.1699     4.2943    -2.8205 H       
  39 H39            3.2998     2.8974    -3.4986 H       
  40 H40           -4.1890    -0.1944     2.0767 H       
  41 H41           -5.6943    -2.5824    -1.9792 H       
  42 H42           -3.5432    -1.3950    -1.9909 H       
  43 H43           -5.0559    -1.1012     3.7498 H       
  44 H44           -5.8697     0.3766     3.1824 H       
  45 H45           -6.7246    -0.7518     4.2613 H       
  46 H46          -10.0283    -3.1544     0.5680 H       
  47 H47          -10.5381    -1.9299    -0.6190 H       
  48 H48           -9.7314    -3.4189    -1.1670 H       
@<TRIPOS>BOND
   1    1    2 am
   2    1   10 1
   3    1    6 1
   4    2    3 1
   5    2    7 2
   6    3    4 2
   7    3    8 1
   8    4    5 1
   9    4   15 1
  10    5    6 2
  11    5   27 1
  12    6   28 1
  13    8    9 3
  14   10   11 1
  15   10   29 1
  16   10   30 1
  17   11   12 1
  18   11   31 1
  19   11   32 1
  20   12   13 1
  21   12   14 1
  22   12   33 1
  23   13   34 1
  24   13   35 1
  25   13   36 1
  26   14   37 1
  27   14   38 1
  28   14   39 1
  29   15   16 ar
  30   15   20 ar
  31   16   17 ar
  32   16   40 1
  33   17   18 ar
  34   17   22 1
  35   18   19 ar
  36   18   21 1
  37   19   20 ar
  38   19   41 1
  39   20   42 1
  40   21   23 1
  41   22   24 1
  42   23   25 1
  43   23   26 2
  44   24   43 1
  45   24   44 1
  46   24   45 1
  47   25   46 1
  48   25   47 1
  49   25   48 1

#	End of record

