#	Name: ASD01148585
#	Creating user name:	WinNT
#	Creation time:	15. 06. 2019 19:02

#	Modifying user name:	WinNT
#	Modification time:	15. 06. 2019 19:02

#	Program:	/corina/corina34_cracker 3.40 0067  02.08.2006

@<TRIPOS>MOLECULE
ASD01148585
  53   56    0    0    0
SMALL
NO_CHARGES


@<TRIPOS>ATOM
   1 C1            -0.0170     1.4365    -0.0252 C.ar    
   2 C2             0.0192     0.0537    -0.0359 C.ar    
   3 C3            -1.1595    -0.6684    -0.0203 C.ar    
   4 C4            -2.3740    -0.0090     0.0060 C.ar    
   5 C5            -2.4107     1.3731     0.0167 C.ar    
   6 C6            -1.2330     2.0960     0.0064 C.ar    
   7 C7            -3.7353     2.0913     0.0454 C.3     
   8 O8            -4.7239     1.3223     0.7600 O.3     
   9 C9            -3.6509     3.3745     0.9060 C.3     
  10 C10           -4.1234     2.8922     2.2643 C.2     
  11 N11           -4.7047     1.7486     2.1080 N.2     
  12 C12           -3.9492     3.6045     3.5417 C.ar    
  13 C13           -4.4555     3.0231     4.7826 C.ar    
  14 C14           -3.2977     4.8298     3.5751 C.ar    
  15 C15           -3.1197     5.5203     4.7606 C.ar    
  16 C16           -3.5845     5.0173     5.9682 C.ar    
  17 C17           -4.2736     3.7293     5.9952 C.ar    
  18 C18           -3.3798     5.7751     7.2153 C.2     
  19 O19           -3.8797     5.3850     8.2529 O.2     
  20 N20           -2.6384     6.9007     7.2059 N.am    
  21 C21           -4.7587     3.1833     7.1902 C.ar    
  22 C22           -5.1138     1.7868     4.7969 C.ar    
  23 C23           -4.2116     2.4125    -1.3727 C.3     
  24 F24           -4.3441     1.2249    -2.1003 F       
  25 F25           -5.4485     3.0633    -1.3130 F       
  26 F26           -3.2776     3.2428    -2.0015 F       
  27 Cl27           1.4628     2.3440    -0.0442 Cl      
  28 C28           -2.4465     7.6111     8.3749 C.2     
  29 N29           -2.9773     7.1969     9.4765 N.2     
  30 O30           -2.7806     7.9251    10.6749 O.3     
  31 C31           -3.4243     7.3529    11.8151 C.3     
  32 C32           -5.5701     1.2807     5.9777 C.ar    
  33 C33           -5.3957     1.9780     7.1701 C.ar    
  34 C34           -1.1203    -2.1748    -0.0324 C.3     
  35 F35            0.2101    -2.6065    -0.0595 F       
  36 F36           -1.7469    -2.6669     1.1176 F       
  37 F37           -1.7878    -2.6496    -1.1666 F       
  38 H38            0.9681    -0.4617    -0.0568 H       
  39 H39           -3.2946    -0.5735     0.0178 H       
  40 H40           -1.2618     3.1756     0.0147 H       
  41 H41           -2.6246     3.7375     0.9598 H       
  42 H42           -4.3154     4.1458     0.5166 H       
  43 H43           -2.9213     5.2531     2.6556 H       
  44 H44           -2.6077     6.4711     4.7464 H       
  45 H45           -2.2397     7.2118     6.3783 H       
  46 H46           -4.6288     3.7136     8.1220 H       
  47 H47           -5.2593     1.2381     3.8782 H       
  48 H48           -1.8525     8.5130     8.3674 H       
  49 H49           -4.4991     7.3059    11.6401 H       
  50 H50           -3.0391     6.3471    11.9831 H       
  51 H51           -3.2255     7.9691    12.6920 H       
  52 H52           -6.0778     0.3275     5.9876 H       
  53 H53           -5.7695     1.5579     8.0921 H       
@<TRIPOS>BOND
   1    1    2 ar
   2    1   27 1
   3    1    6 ar
   4    2    3 ar
   5    2   38 1
   6    3    4 ar
   7    3   34 1
   8    4    5 ar
   9    4   39 1
  10    5    6 ar
  11    5    7 1
  12    6   40 1
  13    7    8 1
  14    7    9 1
  15    7   23 1
  16    8   11 1
  17    9   10 1
  18    9   41 1
  19    9   42 1
  20   10   11 2
  21   10   12 1
  22   12   13 ar
  23   12   14 ar
  24   13   22 ar
  25   13   17 ar
  26   14   15 ar
  27   14   43 1
  28   15   16 ar
  29   15   44 1
  30   16   17 ar
  31   16   18 1
  32   17   21 ar
  33   18   19 2
  34   18   20 am
  35   20   28 1
  36   20   45 1
  37   21   33 ar
  38   21   46 1
  39   22   32 ar
  40   22   47 1
  41   23   24 1
  42   23   25 1
  43   23   26 1
  44   28   29 2
  45   28   48 1
  46   29   30 1
  47   30   31 1
  48   31   49 1
  49   31   50 1
  50   31   51 1
  51   32   33 ar
  52   32   52 1
  53   33   53 1
  54   34   35 1
  55   34   36 1
  56   34   37 1

#	End of record

