#	Name: ASD05238001
#	Creating user name:	WinNT
#	Creation time:	15. 06. 2019 20:57

#	Modifying user name:	WinNT
#	Modification time:	15. 06. 2019 20:57

#	Program:	/corina/corina34_cracker 3.40 0067  02.08.2006

@<TRIPOS>MOLECULE
ASD05238001
  38   41    0    0    0
SMALL
NO_CHARGES


@<TRIPOS>ATOM
   1 N1            -0.0156     1.2980     0.0092 N.2     
   2 C2             0.0021    -0.0041     0.0020 C.2     
   3 C3             1.2584    -0.8595     0.0968 C.3     
   4 C4             2.3850    -0.0616    -0.5315 C.2     
   5 C5             2.3756     1.3864    -0.2615 C.ar    
   6 C6             3.5566     2.1277    -0.2638 C.ar    
   7 C7             3.5103     3.4820    -0.0098 C.ar    
   8 C8             2.2987     4.1081     0.2468 C.ar    
   9 C9             1.1210     3.3922     0.2552 C.ar    
  10 C10            1.1400     2.0194     0.0020 C.ar    
  11 N11           -1.0608    -0.8464    -0.1362 N.pl3   
  12 C12            0.9156    -2.0641    -0.8066 C.3     
  13 C13           -0.6227    -2.1337    -0.6941 C.3     
  14 O14            3.2414    -0.5840    -1.2141 O.2     
  15 C15           -2.3794    -0.5308     0.2041 C.ar    
  16 C16           -3.3887    -1.4676     0.0214 C.ar    
  17 C17           -4.6903    -1.1527     0.3591 C.ar    
  18 C18           -4.9893     0.0934     0.8787 C.ar    
  19 C19           -3.9870     1.0285     1.0615 C.ar    
  20 C20           -2.6824     0.7181     0.7312 C.ar    
  21 C21            4.7838     4.2877    -0.0104 C.3     
  22 O22            1.5547    -1.2428     1.4412 O.3     
  23 H23            4.5015     1.6440    -0.4628 H       
  24 H24            2.2784     5.1700     0.4428 H       
  25 H25            0.1853     3.8922     0.4572 H       
  26 H26            1.2209    -1.8760    -1.8359 H       
  27 H27            1.3738    -2.9770    -0.4259 H       
  28 H28           -0.9121    -2.9470    -0.0287 H       
  29 H29           -1.0629    -2.2826    -1.6801 H       
  30 H30           -3.1559    -2.4409    -0.3847 H       
  31 H31           -5.4755    -1.8805     0.2170 H       
  32 H32           -6.0080     0.3371     1.1420 H       
  33 H33           -4.2240     2.0009     1.4672 H       
  34 H34           -1.8994     1.4472     0.8787 H       
  35 H35            4.9738     4.6663    -1.0148 H       
  36 H36            4.6845     5.1248     0.6806 H       
  37 H37            5.6143     3.6549     0.3024 H       
  38 H38            1.7250    -0.4980     2.0340 H       
@<TRIPOS>BOND
   1    1    2 2
   2    1   10 1
   3    2    3 1
   4    2   11 1
   5    3    4 1
   6    3   12 1
   7    3   22 1
   8    4    5 1
   9    4   14 2
  10    5    6 ar
  11    5   10 ar
  12    6    7 ar
  13    6   23 1
  14    7    8 ar
  15    7   21 1
  16    8    9 ar
  17    8   24 1
  18    9   10 ar
  19    9   25 1
  20   11   13 1
  21   11   15 1
  22   12   13 1
  23   12   26 1
  24   12   27 1
  25   13   28 1
  26   13   29 1
  27   15   16 ar
  28   15   20 ar
  29   16   17 ar
  30   16   30 1
  31   17   18 ar
  32   17   31 1
  33   18   19 ar
  34   18   32 1
  35   19   20 ar
  36   19   33 1
  37   20   34 1
  38   21   35 1
  39   21   36 1
  40   21   37 1
  41   22   38 1

#	End of record

