#	Name: ASD01880970
#	Creating user name:	WinNT
#	Creation time:	15. 06. 2019 19:41

#	Modifying user name:	WinNT
#	Modification time:	15. 06. 2019 19:41

#	Program:	/corina/corina34_cracker 3.40 0067  02.08.2006

@<TRIPOS>MOLECULE
ASD01880970
  46   49    0    0    0
SMALL
NO_CHARGES


@<TRIPOS>ATOM
   1 N1             0.0056     1.3292    -0.1720 N.ar    
   2 C2             0.0069     0.0116    -0.1813 C.ar    
   3 N3             1.1161    -0.6850    -0.0188 N.ar    
   4 C4             2.2807    -0.0820     0.1613 C.ar    
   5 C5             2.3297     1.3010     0.1787 C.ar    
   6 C6             1.1376     2.0085     0.0038 C.ar    
   7 C7             3.6355     2.0254     0.3810 C.3     
   8 O8             4.6669     1.0779     0.6650 O.3     
   9 C9             5.9144     1.5694     0.8747 C.ar    
  10 C10            6.9652     0.7011     1.1561 C.ar    
  11 C11            8.2268     1.1983     1.3677 C.ar    
  12 C12            8.4654     2.5754     1.3025 C.ar    
  13 C13            7.4060     3.4442     1.0194 C.ar    
  14 C14            6.1419     2.9378     0.8026 C.ar    
  15 C15            9.5520     0.5515     1.6853 C.3     
  16 N16           10.5260     1.6440     1.7903 N.am    
  17 C17            9.8944     2.8095     1.5687 C.2     
  18 O18           10.4276     3.9022     1.5853 O.2     
  19 Cl19          -1.4926    -0.8318    -0.4132 Cl      
  20 Cl20           7.6836     5.1558     0.9352 Cl      
  21 C21            1.1330     3.4911     0.0133 C.ar    
  22 C22            2.1009     4.1957    -0.7028 C.ar    
  23 C23            2.0979     5.5727    -0.6944 C.ar    
  24 C24            1.1246     6.2641     0.0313 C.ar    
  25 C25            0.1554     5.5574     0.7478 C.ar    
  26 C26            0.1573     4.1805     0.7336 C.ar    
  27 C27            1.1207     7.6961     0.0413 C.1     
  28 N28            1.1176     8.8321     0.0491 N.1     
  29 C29           12.7300     1.3208     0.7805 C.3     
  30 C30           11.9523     1.4896     2.0873 C.3     
  31 H31            3.1819    -0.6624     0.2936 H       
  32 H32            3.8887     2.5777    -0.5239 H       
  33 H33            3.5402     2.7198     1.2158 H       
  34 H34            6.7879    -0.3629     1.2082 H       
  35 H35            5.3241     3.6083     0.5837 H       
  36 H36            9.4892     0.0133     2.6310 H       
  37 H37            9.8381    -0.1298     0.8840 H       
  38 H38            2.8531     3.6610    -1.2637 H       
  39 H39            2.8478     6.1179    -1.2483 H       
  40 H40           -0.5973     6.0908     1.3094 H       
  41 H41           -0.5920     3.6339     1.2870 H       
  42 H42           12.3703     0.4358     0.2555 H       
  43 H43           12.5825     2.2002     0.1537 H       
  44 H44           13.7911     1.2059     1.0015 H       
  45 H45           12.3119     2.3745     2.6123 H       
  46 H46           12.0998     0.6102     2.7141 H       
@<TRIPOS>BOND
   1    1    2 ar
   2    1    6 ar
   3    2    3 ar
   4    2   19 1
   5    3    4 ar
   6    4    5 ar
   7    4   31 1
   8    5    6 ar
   9    5    7 1
  10    6   21 1
  11    7    8 1
  12    7   32 1
  13    7   33 1
  14    8    9 1
  15    9   10 ar
  16    9   14 ar
  17   10   11 ar
  18   10   34 1
  19   11   12 ar
  20   11   15 1
  21   12   13 ar
  22   12   17 1
  23   13   14 ar
  24   13   20 1
  25   14   35 1
  26   15   16 1
  27   15   36 1
  28   15   37 1
  29   16   17 am
  30   16   30 1
  31   17   18 2
  32   21   22 ar
  33   21   26 ar
  34   22   23 ar
  35   22   38 1
  36   23   24 ar
  37   23   39 1
  38   24   25 ar
  39   24   27 1
  40   25   26 ar
  41   25   40 1
  42   26   41 1
  43   27   28 3
  44   29   30 1
  45   29   42 1
  46   29   43 1
  47   29   44 1
  48   30   45 1
  49   30   46 1

#	End of record

