#	Name: ASD00170216
#	Creating user name:	WinNT
#	Creation time:	15. 06. 2019 18:31

#	Modifying user name:	WinNT
#	Modification time:	15. 06. 2019 18:31

#	Program:	/corina/corina34_cracker 3.40 0067  02.08.2006

@<TRIPOS>MOLECULE
ASD00170216
  47   49    0    0    0
SMALL
NO_CHARGES


@<TRIPOS>ATOM
   1 C1             0.0501     1.2489    -0.0628 C.2     
   2 C2            -0.0707    -0.1040     0.0386 C.2     
   3 C3            -1.4570    -0.5305     0.1152 C.2     
   4 C4            -2.3418     0.5168     0.0691 C.2     
   5 S5            -1.5310     2.0090    -0.0576 S.3     
   6 C6             1.0800    -1.0339     0.0671 C.ar    
   7 C7             1.3639    -1.7621     1.2229 C.ar    
   8 C8             2.4384    -2.6275     1.2430 C.ar    
   9 C9             3.2337    -2.7736     0.1205 C.ar    
  10 C10            2.9578    -2.0539    -1.0288 C.ar    
  11 C11            1.8826    -1.1905    -1.0640 C.ar    
  12 N12           -3.7132     0.3793     0.1243 N.pl3   
  13 C13           -1.8664    -1.9289     0.2290 C.2     
  14 O14           -2.0940    -2.6578    -0.8833 O.3     
  15 O15           -2.0020    -2.4357     1.3268 O.2     
  16 C16            1.3317     1.9742    -0.1574 C.ar    
  17 C17            1.5093     2.9589    -1.1326 C.ar    
  18 C18            2.7082     3.6337    -1.2172 C.ar    
  19 C19            3.7387     3.3362    -0.3352 C.ar    
  20 C20            3.5668     2.3583     0.6356 C.ar    
  21 C21            2.3694     1.6823     0.7316 C.ar    
  22 C22           -2.4913    -4.0179    -0.6977 C.3     
  23 C23           -2.7018    -4.6784    -2.0616 C.3     
  24 O24            4.9192     4.0038    -0.4226 O.3     
  25 C25            5.9367     3.6482     0.5156 C.3     
  26 C26            2.7465    -3.4149     2.4904 C.3     
  27 F27            2.0632    -4.6351     2.4523 F       
  28 F28            4.1231    -3.6534     2.5633 F       
  29 F29            2.3391    -2.6872     3.6137 F       
  30 H30            0.7441    -1.6484     2.1001 H       
  31 H31            4.0738    -3.4520     0.1414 H       
  32 H32            3.5827    -2.1721    -1.9016 H       
  33 H33            1.6681    -0.6296    -1.9616 H       
  34 H34           -4.1095    -0.5028     0.2009 H       
  35 H35           -4.2814     1.1646     0.0865 H       
  36 H36            0.7086     3.1907    -1.8192 H       
  37 H37            2.8465     4.3948    -1.9709 H       
  38 H38            4.3711     2.1300     1.3193 H       
  39 H39            2.2364     0.9221     1.4871 H       
  40 H40           -1.7139    -4.5521    -0.1514 H       
  41 H41           -3.4216    -4.0505    -0.1307 H       
  42 H42           -3.4792    -4.1442    -2.6079 H       
  43 H43           -1.7715    -4.6458    -2.6286 H       
  44 H44           -3.0049    -5.7158    -1.9200 H       
  45 H45            5.5747     3.8247     1.5285 H       
  46 H46            6.1870     2.5939     0.3979 H       
  47 H47            6.8244     4.2546     0.3361 H       
@<TRIPOS>BOND
   1    1    2 2
   2    1   16 1
   3    1    5 1
   4    2    3 1
   5    2    6 1
   6    3    4 2
   7    3   13 1
   8    4    5 1
   9    4   12 1
  10    6    7 ar
  11    6   11 ar
  12    7    8 ar
  13    7   30 1
  14    8    9 ar
  15    8   26 1
  16    9   10 ar
  17    9   31 1
  18   10   11 ar
  19   10   32 1
  20   11   33 1
  21   12   34 1
  22   12   35 1
  23   13   14 1
  24   13   15 2
  25   14   22 1
  26   16   17 ar
  27   16   21 ar
  28   17   18 ar
  29   17   36 1
  30   18   19 ar
  31   18   37 1
  32   19   20 ar
  33   19   24 1
  34   20   21 ar
  35   20   38 1
  36   21   39 1
  37   22   23 1
  38   22   40 1
  39   22   41 1
  40   23   42 1
  41   23   43 1
  42   23   44 1
  43   24   25 1
  44   25   45 1
  45   25   46 1
  46   25   47 1
  47   26   27 1
  48   26   28 1
  49   26   29 1

#	End of record

