#	Name: ASD01100012
#	Creating user name:	WinNT
#	Creation time:	15. 06. 2019 18:58

#	Modifying user name:	WinNT
#	Modification time:	15. 06. 2019 18:58

#	Program:	/corina/corina34_cracker 3.40 0067  02.08.2006

@<TRIPOS>MOLECULE
ASD01100012
  35   36    0    0    0
SMALL
NO_CHARGES


@<TRIPOS>ATOM
   1 C1            -0.1567     2.1120    -0.2690 C.ar    
   2 C2            -0.4249     0.7552    -0.3016 C.ar    
   3 C3             0.6153    -0.1562    -0.2631 C.ar    
   4 C4             1.9218     0.2894    -0.1921 C.ar    
   5 C5             2.1891     1.6453    -0.1595 C.ar    
   6 C6             1.1501     2.5564    -0.1980 C.ar    
   7 C7             3.6138     2.1304    -0.0816 C.3     
   8 S8             4.9282     3.2960    -2.1379 S.o2    
   9 C9             3.9444     2.5116     1.3628 C.3     
  10 C10            3.8744     1.2656     2.2479 C.3     
  11 C11            5.3545     3.1023     1.4243 C.3     
  12 Cl12          -2.0661     0.1963    -0.3902 Cl      
  13 C13            4.4469     2.0817    -3.3206 C.2     
  14 N14            4.7152     2.1320    -4.5816 N.2     
  15 C15            4.2798     1.1374    -5.3286 C.2     
  16 C16            3.6069     0.1958    -4.6605 C.2     
  17 S17            3.5632     0.6626    -2.9620 S.3     
  18 O18            6.1255     2.8199    -1.5386 O.2     
  19 O19            4.8335     4.5535    -2.7927 O.2     
  20 N20            3.7788     3.3018    -0.9458 N.am    
  21 H21           -0.9681     2.8240    -0.3036 H       
  22 H22            0.4065    -1.2155    -0.2881 H       
  23 H23            2.7339    -0.4219    -0.1616 H       
  24 H24            1.3596     3.6156    -0.1726 H       
  25 H25            4.2859     1.3381    -0.4112 H       
  26 H26            3.2254     3.2501     1.7173 H       
  27 H27            4.5935     0.5272     1.8933 H       
  28 H28            4.1100     1.5372     3.2769 H       
  29 H29            2.8699     0.8448     2.2041 H       
  30 H30            5.3805     4.0392     0.8678 H       
  31 H31            5.6250     3.2893     2.4635 H       
  32 H32            6.0624     2.3993     0.9854 H       
  33 H33            4.4524     1.0876    -6.3936 H       
  34 H34            3.1703    -0.6958    -5.0858 H       
  35 H35            3.2147     4.0808    -0.8198 H       
@<TRIPOS>BOND
   1    1    2 ar
   2    1    6 ar
   3    1   21 1
   4    2    3 ar
   5    2   12 1
   6    3    4 ar
   7    3   22 1
   8    4    5 ar
   9    4   23 1
  10    5    6 ar
  11    5    7 1
  12    6   24 1
  13    7    9 1
  14    7   20 1
  15    7   25 1
  16    8   18 2
  17    8   19 2
  18    8   13 1
  19    8   20 am
  20    9   10 1
  21    9   11 1
  22    9   26 1
  23   10   27 1
  24   10   28 1
  25   10   29 1
  26   11   30 1
  27   11   31 1
  28   11   32 1
  29   13   14 2
  30   13   17 1
  31   14   15 1
  32   15   16 2
  33   15   33 1
  34   16   17 1
  35   16   34 1
  36   20   35 1

#	End of record

