#	Name: ASD01918392
#	Creating user name:	WinNT
#	Creation time:	15. 06. 2019 20:11

#	Modifying user name:	WinNT
#	Modification time:	15. 06. 2019 20:11

#	Program:	/corina/corina34_cracker 3.40 0067  02.08.2006

@<TRIPOS>MOLECULE
ASD01918392
  41   43    0    0    0
SMALL
NO_CHARGES


@<TRIPOS>ATOM
   1 C1            -0.0164     1.3813     0.0131 C.ar    
   2 C2             0.0019    -0.0042    -0.0009 C.ar    
   3 C3             1.2082    -0.6856    -0.0225 C.ar    
   4 C4             2.3976     0.0129    -0.0297 C.ar    
   5 C5             2.3846     1.4078    -0.0157 C.ar    
   6 C6             1.1676     2.0891     0.0056 C.ar    
   7 F7            -1.1603    -0.6929     0.0069 F       
   8 C8             3.6579     2.1623    -0.0229 C.2     
   9 N9             4.7609     1.9027     0.7358 N.pl3   
  10 N10            5.6847     2.7558     0.4735 N.2     
  11 C11            5.2755     3.6101    -0.4436 C.2     
  12 C12            3.9564     3.2496    -0.7955 C.2     
  13 C13            4.8754     0.8117     1.7068 C.3     
  14 C14            3.0633     3.9259    -1.8034 C.3     
  15 C15            6.0544     4.7335    -1.0029 C.2     
  16 N16            7.3125     4.9598    -0.5758 N.am    
  17 O17            5.5608     5.4539    -1.8486 O.2     
  18 C18            8.0852     5.9502    -1.1784 C.ar    
  19 C19            9.3409     6.2523    -0.6641 C.ar    
  20 N20            7.6192     6.5911    -2.2390 N.ar    
  21 C21            8.3184     7.5347    -2.8396 C.ar    
  22 C22            9.5712     7.8896    -2.3790 C.ar    
  23 C23           10.0982     7.2379    -1.2726 C.ar    
  24 C24            7.7430     8.2341    -4.0441 C.3     
  25 H25           -0.9592     1.9079     0.0253 H       
  26 H26            1.2172    -1.7655    -0.0334 H       
  27 H27            3.3374    -0.5191    -0.0459 H       
  28 H28            1.1523     3.1690     0.0162 H       
  29 H29            5.2653    -0.0770     1.2105 H       
  30 H30            5.5532     1.1076     2.5075 H       
  31 H31            3.8928     0.5928     2.1248 H       
  32 H32            3.2133     3.4730    -2.7835 H       
  33 H33            2.0221     3.8071    -1.5038 H       
  34 H34            3.3086     4.9869    -1.8521 H       
  35 H35            7.6800     4.4332     0.1513 H       
  36 H36            9.7202     5.7253     0.1990 H       
  37 H37           10.1366     8.6634    -2.8771 H       
  38 H38           11.0754     7.4971    -0.8927 H       
  39 H39            7.1784     9.1087    -3.7211 H       
  40 H40            8.5525     8.5473    -4.7034 H       
  41 H41            7.0820     7.5521    -4.5789 H       
@<TRIPOS>BOND
   1    1    2 ar
   2    1    6 ar
   3    1   25 1
   4    2    3 ar
   5    2    7 1
   6    3    4 ar
   7    3   26 1
   8    4    5 ar
   9    4   27 1
  10    5    6 ar
  11    5    8 1
  12    6   28 1
  13    8    9 1
  14    8   12 2
  15    9   10 1
  16    9   13 1
  17   10   11 2
  18   11   12 1
  19   11   15 1
  20   12   14 1
  21   13   29 1
  22   13   30 1
  23   13   31 1
  24   14   32 1
  25   14   33 1
  26   14   34 1
  27   15   16 am
  28   15   17 2
  29   16   18 1
  30   16   35 1
  31   18   19 ar
  32   18   20 ar
  33   19   23 ar
  34   19   36 1
  35   20   21 ar
  36   21   22 ar
  37   21   24 1
  38   22   23 ar
  39   22   37 1
  40   23   38 1
  41   24   39 1
  42   24   40 1
  43   24   41 1

#	End of record

