#	Name: ASD00510001
#	Creating user name:	WinNT
#	Creation time:	15. 06. 2019 18:36

#	Modifying user name:	WinNT
#	Modification time:	15. 06. 2019 18:36

#	Program:	/corina/corina34_cracker 3.40 0067  02.08.2006

@<TRIPOS>MOLECULE
ASD00510001
  32   34    0    0    0
SMALL
NO_CHARGES


@<TRIPOS>ATOM
   1 C1            -0.0156     1.2968     0.0092 C.2     
   2 N2             0.0021    -0.0041     0.0020 N.2     
   3 C3             1.2871    -0.4433    -0.0126 C.ar    
   4 C4             2.1094     0.6962    -0.0143 C.ar    
   5 N5             1.2555     1.7818    -0.0004 N.pl3   
   6 C6             1.8703    -1.7130    -0.0254 C.ar    
   7 C7             3.2418    -1.8355    -0.0396 C.ar    
   8 C8             4.0506    -0.7055    -0.0407 C.ar    
   9 C9             3.4898     0.5548    -0.0287 C.ar    
  10 C10            1.6462     3.1938     0.0035 C.3     
  11 C11            1.8992     3.6940    -1.4415 C.3     
  12 O12            3.2431     3.4254    -1.8462 O.3     
  13 C13            1.6573     5.2170    -1.3045 C.3     
  14 O14            2.8983     5.9086    -1.1506 O.3     
  15 C15            0.8036     5.3505    -0.0286 C.3     
  16 O16            0.5553     4.0218     0.4605 O.3     
  17 C17           -0.5219     6.0394    -0.3593 C.3     
  18 O18           -1.2560     6.2636     0.8461 O.3     
  19 Cl19           5.7776    -0.8810    -0.0575 Cl      
  20 Cl20           3.9658    -3.4132    -0.0554 Cl      
  21 H21           -0.9091     1.9033     0.0169 H       
  22 H22            1.2475    -2.5953    -0.0238 H       
  23 H23            4.1235     1.4293    -0.0299 H       
  24 H24            2.5299     3.3469     0.6229 H       
  25 H25            1.1888     3.2479    -2.1376 H       
  26 H26            3.4500     3.7201    -2.7437 H       
  27 H27            1.1149     5.5966    -2.1704 H       
  28 H28            2.8059     6.8669    -1.0603 H       
  29 H29            1.3458     5.9263     0.7216 H       
  30 H30           -0.3236     6.9939    -0.8468 H       
  31 H31           -1.1046     5.4046    -1.0268 H       
  32 H32           -2.1093     6.6981     0.7119 H       
@<TRIPOS>BOND
   1    1    2 2
   2    1    5 1
   3    1   21 1
   4    2    3 1
   5    3    4 ar
   6    3    6 ar
   7    4    5 1
   8    4    9 ar
   9    5   10 1
  10    6    7 ar
  11    6   22 1
  12    7    8 ar
  13    7   20 1
  14    8    9 ar
  15    8   19 1
  16    9   23 1
  17   10   11 1
  18   10   16 1
  19   10   24 1
  20   11   12 1
  21   11   13 1
  22   11   25 1
  23   12   26 1
  24   13   14 1
  25   13   15 1
  26   13   27 1
  27   14   28 1
  28   15   16 1
  29   15   17 1
  30   15   29 1
  31   17   18 1
  32   17   30 1
  33   17   31 1
  34   18   32 1

#	End of record

