#	Name: ASD02500547
#	Creating user name:	WinNT
#	Creation time:	15. 06. 2019 20:23

#	Modifying user name:	WinNT
#	Modification time:	15. 06. 2019 20:23

#	Program:	/corina/corina34_cracker 3.40 0067  02.08.2006

@<TRIPOS>MOLECULE
ASD02500547
  61   65    0    0    0
SMALL
NO_CHARGES


@<TRIPOS>ATOM
   1 N1            -3.5336     5.5778    -0.0145 N.ar    
   2 C2            -4.6586     6.2165    -0.2256 C.ar    
   3 C3            -5.7793     6.0125     0.5767 C.ar    
   4 C4            -5.7223     5.1270     1.6150 C.ar    
   5 C5            -4.5126     4.4426     1.8385 C.ar    
   6 C6            -4.3785     3.5180     2.8864 C.ar    
   7 C7            -3.1914     2.8766     3.0700 C.ar    
   8 C8            -2.1070     3.1259     2.2316 C.ar    
   9 C9            -2.2020     4.0158     1.2062 C.ar    
  10 C10           -3.4109     4.6979     0.9845 C.ar    
  11 S11           -0.8147     4.3127     0.1613 S.o2    
  12 O12           -0.6556     5.7232     0.0966 O.2     
  13 O13            0.2127     3.4340     0.5992 O.2     
  14 N14           -1.2342     3.8189    -1.3626 N.am    
  15 C15           -1.4413     2.4675    -1.6241 C.ar    
  16 C16           -1.1129     1.9422    -2.8730 C.ar    
  17 C17           -1.3171     0.6050    -3.1338 C.ar    
  18 C18           -1.8538    -0.2243    -2.1439 C.ar    
  19 C19           -2.1811     0.3064    -0.8934 C.ar    
  20 C20           -1.9703     1.6426    -0.6368 C.ar    
  21 F21           -0.5946     2.7449    -3.8281 F       
  22 C22           -2.0743    -1.6567    -2.4196 C.2     
  23 O23           -2.5060    -2.0083    -3.5006 O.2     
  24 N24           -1.7974    -2.5755    -1.4733 N.am    
  25 C25           -1.9231    -4.0131    -1.7572 C.3     
  26 C26           -0.6211    -4.7068    -1.3426 C.3     
  27 N27           -0.3164    -4.3741     0.0554 N.3     
  28 C28           -0.0817    -2.9335     0.2213 C.3     
  29 C29           -1.3557    -2.1673    -0.1311 C.3     
  30 C30            0.8285    -5.1538     0.5446 C.3     
  31 C31            1.2657    -4.6181     1.8836 C.ar    
  32 C32            0.7171    -5.1290     3.0450 C.ar    
  33 C33            1.1181    -4.6376     4.2732 C.ar    
  34 C34            2.0680    -3.6356     4.3401 C.ar    
  35 C35            2.6173    -3.1253     3.1787 C.ar    
  36 C36            2.2195    -3.6197     1.9506 C.ar    
  37 H37           -4.7183     6.9198    -1.0431 H       
  38 H38           -6.6922     6.5544     0.3780 H       
  39 H39           -6.5813     4.9569     2.2472 H       
  40 H40           -5.2118     3.3169     3.5432 H       
  41 H41           -3.0891     2.1654     3.8763 H       
  42 H42           -1.1758     2.6049     2.3983 H       
  43 H43           -1.3356     4.4715    -2.0731 H       
  44 H44           -1.0635     0.1979    -4.1015 H       
  45 H45           -2.5959    -0.3320    -0.1274 H       
  46 H46           -2.2195     2.0517     0.3312 H       
  47 H47           -2.7557    -4.4273    -1.1886 H       
  48 H48           -2.0940    -4.1622    -2.8234 H       
  49 H49           -0.7361    -5.7861    -1.4429 H       
  50 H50            0.1924    -4.3663    -1.9832 H       
  51 H51            0.1945    -2.7267     1.2552 H       
  52 H52            0.7243    -2.6176    -0.4411 H       
  53 H53           -1.1516    -1.0966    -0.1226 H       
  54 H54           -2.1327    -2.4006     0.5968 H       
  55 H55            0.5382    -6.1992     0.6487 H       
  56 H56            1.6521    -5.0743    -0.1650 H       
  57 H57           -0.0251    -5.9119     2.9928 H       
  58 H58            0.6890    -5.0363     5.1806 H       
  59 H59            2.3808    -3.2512     5.2997 H       
  60 H60            3.3592    -2.3422     3.2310 H       
  61 H61            2.6513    -3.2236     1.0434 H       
@<TRIPOS>BOND
   1    1    2 ar
   2    1   10 ar
   3    2    3 ar
   4    2   37 1
   5    3    4 ar
   6    3   38 1
   7    4    5 ar
   8    4   39 1
   9    5    6 ar
  10    5   10 ar
  11    6    7 ar
  12    6   40 1
  13    7    8 ar
  14    7   41 1
  15    8    9 ar
  16    8   42 1
  17    9   10 ar
  18    9   11 1
  19   11   12 2
  20   11   13 2
  21   11   14 am
  22   14   15 1
  23   14   43 1
  24   15   16 ar
  25   15   20 ar
  26   16   17 ar
  27   16   21 1
  28   17   18 ar
  29   17   44 1
  30   18   19 ar
  31   18   22 1
  32   19   20 ar
  33   19   45 1
  34   20   46 1
  35   22   23 2
  36   22   24 am
  37   24   25 1
  38   24   29 1
  39   25   26 1
  40   25   47 1
  41   25   48 1
  42   26   27 1
  43   26   49 1
  44   26   50 1
  45   27   28 1
  46   27   30 1
  47   28   29 1
  48   28   51 1
  49   28   52 1
  50   29   53 1
  51   29   54 1
  52   30   31 1
  53   30   55 1
  54   30   56 1
  55   31   32 ar
  56   31   36 ar
  57   32   33 ar
  58   32   57 1
  59   33   34 ar
  60   33   58 1
  61   34   35 ar
  62   34   59 1
  63   35   36 ar
  64   35   60 1
  65   36   61 1

#	End of record

