#	Name: ASD00170011
#	Creating user name:	WinNT
#	Creation time:	15. 06. 2019 18:31

#	Modifying user name:	WinNT
#	Modification time:	15. 06. 2019 18:31

#	Program:	/corina/corina34_cracker 3.40 0067  02.08.2006

@<TRIPOS>MOLECULE
ASD00170011
  49   52    0    0    0
SMALL
NO_CHARGES


@<TRIPOS>ATOM
   1 C1             0.5540     1.5248    -0.7145 C.ar    
   2 C2             8.4363     1.1771     5.1909 C.ar    
   3 C3             7.1312     1.5252     4.9129 C.ar    
   4 C4             6.8482     2.7739     4.3564 C.ar    
   5 C5             7.8896     3.6629     4.0842 C.ar    
   6 C6             9.1907     3.3035     4.3662 C.ar    
   7 C7             9.4654     2.0632     4.9183 C.ar    
   8 C8             5.4508     3.1532     4.0559 C.2     
   9 C9             5.1451     4.5027     3.5817 C.2     
  10 O10            4.5546     2.3420     4.2033 O.2     
  11 Cl11          11.1059     1.6177     5.2705 Cl      
  12 C12            5.0613     4.8615     2.1815 C.2     
  13 C13            4.7724     6.1387     1.9868 C.2     
  14 S14            4.5858     6.9790     3.5155 S.3     
  15 C15            4.9003     5.5674     4.4176 C.2     
  16 N16            4.9146     5.5032     5.7962 N.pl3   
  17 C17            5.2810     3.8802     1.0591 C.3     
  18 N18            4.0619     3.0858     0.8574 N.3     
  19 C19            4.1511     2.2874    -0.3731 C.3     
  20 C20            2.8993     1.4168    -0.5050 C.3     
  21 N21            1.7076     2.2765    -0.5237 N.3     
  22 C22            1.6184     3.0748     0.7069 C.3     
  23 C23            2.8702     3.9455     0.8388 C.3     
  24 N24            0.6421     0.2107    -0.8495 N.ar    
  25 C25           -0.4283    -0.5395    -1.0319 C.ar    
  26 C26           -1.6867     0.0246    -1.0890 C.ar    
  27 C27           -1.8226     1.3999    -0.9518 C.ar    
  28 C28           -0.6835     2.1595    -0.7561 C.ar    
  29 H29            8.6560     0.2132     5.6255 H       
  30 H30            6.3297     0.8334     5.1256 H       
  31 H31            7.6767     4.6301     3.6534 H       
  32 H32            9.9973     3.9903     4.1557 H       
  33 H33            4.6665     6.6015     1.0168 H       
  34 H34            4.8164     6.3133     6.3205 H       
  35 H35            5.0227     4.6479     6.2407 H       
  36 H36            5.5170     4.4224     0.1434 H       
  37 H37            6.1086     3.2177     1.3125 H       
  38 H38            4.2238     2.9525    -1.2336 H       
  39 H39            5.0344     1.6502    -0.3300 H       
  40 H40            2.9499     0.8452    -1.4318 H       
  41 H41            2.8411     0.7328     0.3417 H       
  42 H42            0.7351     3.7121     0.6637 H       
  43 H43            1.5457     2.4098     1.5674 H       
  44 H44            2.8196     4.5171     1.7656 H       
  45 H45            2.9284     4.6294    -0.0079 H       
  46 H46           -0.3181    -1.6086    -1.1381 H       
  47 H47           -2.5568    -0.5972    -1.2393 H       
  48 H48           -2.7962     1.8654    -0.9932 H       
  49 H49           -0.7528     3.2315    -0.6455 H       
@<TRIPOS>BOND
   1    1   24 ar
   2    1   21 1
   3    1   28 ar
   4    2    3 ar
   5    2    7 ar
   6    2   29 1
   7    3    4 ar
   8    3   30 1
   9    4    5 ar
  10    4    8 1
  11    5    6 ar
  12    5   31 1
  13    6    7 ar
  14    6   32 1
  15    7   11 1
  16    8    9 1
  17    8   10 2
  18    9   12 1
  19    9   15 2
  20   12   13 2
  21   12   17 1
  22   13   14 1
  23   13   33 1
  24   14   15 1
  25   15   16 1
  26   16   34 1
  27   16   35 1
  28   17   18 1
  29   17   36 1
  30   17   37 1
  31   18   19 1
  32   18   23 1
  33   19   20 1
  34   19   38 1
  35   19   39 1
  36   20   21 1
  37   20   40 1
  38   20   41 1
  39   21   22 1
  40   22   23 1
  41   22   42 1
  42   22   43 1
  43   23   44 1
  44   23   45 1
  45   24   25 ar
  46   25   26 ar
  47   25   46 1
  48   26   27 ar
  49   26   47 1
  50   27   28 ar
  51   27   48 1
  52   28   49 1

#	End of record

