#	Name: ASD01120049
#	Creating user name:	WinNT
#	Creation time:	15. 06. 2019 18:58

#	Modifying user name:	WinNT
#	Modification time:	15. 06. 2019 18:58

#	Program:	/corina/corina34_cracker 3.40 0067  02.08.2006

@<TRIPOS>MOLECULE
ASD01120049
  54   57    0    0    0
SMALL
NO_CHARGES


@<TRIPOS>ATOM
   1 C1            -0.0893     1.3588     0.6725 C.ar    
   2 C2            -0.0571    -0.0357     0.5327 C.ar    
   3 C3            -1.1956    -0.7357     0.1995 C.ar    
   4 C4            -2.3965    -0.0445    -0.0012 C.ar    
   5 C5            -2.4213     1.3650     0.1419 C.ar    
   6 C6            -1.2514     2.0523     0.4863 C.ar    
   7 N7            -3.5332    -0.6796    -0.3276 N.ar    
   8 C8            -4.6432    -0.0048    -0.5097 C.ar    
   9 N9            -4.7140     1.3112    -0.3869 N.ar    
  10 C10           -3.6497     2.0359    -0.0676 C.ar    
  11 N11           -3.7382     3.4079     0.0575 N.pl3   
  12 C12           -4.9822     4.0392    -0.0323 C.ar    
  13 C13           -6.1279     3.3761     0.3809 C.ar    
  14 C14           -7.3649     4.0094     0.2900 C.ar    
  15 C15           -7.4446     5.3059    -0.2157 C.ar    
  16 C16           -6.2991     5.9593    -0.6251 C.ar    
  17 C17           -5.0706     5.3340    -0.5304 C.ar    
  18 C18           -8.5947     3.3058     0.7297 C.2     
  19 O19            1.0476     2.0279     1.0025 O.3     
  20 O20            1.1096    -0.7037     0.7275 O.3     
  21 C21            0.9508     3.4478     1.1302 C.3     
  22 C22            2.3196     4.0209     1.5030 C.3     
  23 C23            1.0781    -2.1237     0.5705 C.3     
  24 C24            2.4735    -2.6963     0.8274 C.3     
  25 C25           -9.8209     3.8632     0.6675 C.2     
  26 S26          -10.9806     2.6891     1.2841 S.3     
  27 C27           -9.7190     1.5707     1.5644 C.2     
  28 N28           -8.5858     2.0719     1.2131 N.2     
  29 C29           -9.9069     0.1894     2.1371 C.3     
  30 C30           -3.8246     6.0534    -0.9786 C.3     
  31 H31           -1.1620    -1.8100     0.0934 H       
  32 H32           -1.2656     3.1266     0.5964 H       
  33 H33           -5.5395    -0.5473    -0.7718 H       
  34 H34           -2.9371     3.9339     0.2077 H       
  35 H35           -6.0612     2.3715     0.7718 H       
  36 H36           -8.4025     5.7993    -0.2878 H       
  37 H37           -6.3631     6.9638    -1.0166 H       
  38 H38            0.6232     3.8764     0.1830 H       
  39 H39            0.2293     3.6942     1.9093 H       
  40 H40            3.0410     3.7745     0.7240 H       
  41 H41            2.2457     5.1040     1.6005 H       
  42 H42            2.6471     3.5923     2.4502 H       
  43 H43            0.3727    -2.5524     1.2824 H       
  44 H44            0.7653    -2.3703    -0.4441 H       
  45 H45            2.4494    -3.7795     0.7077 H       
  46 H46            3.1788    -2.2676     0.1155 H       
  47 H47            2.7862    -2.4498     1.8421 H       
  48 H48          -10.0511     4.8541     0.3047 H       
  49 H49          -10.9645     0.0212     2.3406 H       
  50 H50           -9.5523    -0.5521     1.4212 H       
  51 H51           -9.3399     0.1001     3.0637 H       
  52 H52           -3.4034     6.6075    -0.1398 H       
  53 H53           -3.0951     5.3274    -1.3375 H       
  54 H54           -4.0741     6.7457    -1.7827 H       
@<TRIPOS>BOND
   1    1    2 ar
   2    1   19 1
   3    1    6 ar
   4    2    3 ar
   5    2   20 1
   6    3    4 ar
   7    3   31 1
   8    4    5 ar
   9    4    7 ar
  10    5    6 ar
  11    5   10 ar
  12    6   32 1
  13    7    8 ar
  14    8    9 ar
  15    8   33 1
  16    9   10 ar
  17   10   11 1
  18   11   12 1
  19   11   34 1
  20   12   13 ar
  21   12   17 ar
  22   13   14 ar
  23   13   35 1
  24   14   15 ar
  25   14   18 1
  26   15   16 ar
  27   15   36 1
  28   16   17 ar
  29   16   37 1
  30   17   30 1
  31   18   25 2
  32   18   28 1
  33   19   21 1
  34   20   23 1
  35   21   22 1
  36   21   38 1
  37   21   39 1
  38   22   40 1
  39   22   41 1
  40   22   42 1
  41   23   24 1
  42   23   43 1
  43   23   44 1
  44   24   45 1
  45   24   46 1
  46   24   47 1
  47   25   26 1
  48   25   48 1
  49   26   27 1
  50   27   28 2
  51   27   29 1
  52   29   49 1
  53   29   50 1
  54   29   51 1
  55   30   52 1
  56   30   53 1
  57   30   54 1

#	End of record

