#	Name: ASD01230698
#	Creating user name:	WinNT
#	Creation time:	15. 06. 2019 19:14

#	Modifying user name:	WinNT
#	Modification time:	15. 06. 2019 19:14

#	Program:	/corina/corina34_cracker 3.40 0067  02.08.2006

@<TRIPOS>MOLECULE
ASD01230698
  38   39    0    0    0
SMALL
NO_CHARGES


@<TRIPOS>ATOM
   1 C1             3.5197    -1.3003     3.2634 C.3     
   2 S2             2.7752    -0.1909     2.0364 S.o2    
   3 O3             2.5404     1.0916     2.6013 O.2     
   4 O4             3.4236    -0.3304     0.7797 O.2     
   5 O5             1.3826    -0.7600     1.8054 O.3     
   6 F6             3.5656    -2.6007     2.7493 F       
   7 F7             4.8179    -0.8684     3.5556 F       
   8 F8             2.7500    -1.2875     4.4315 F       
   9 C9             0.5092    -0.5113     2.8164 C.ar    
  10 C10           -0.2665     0.6388     2.7974 C.ar    
  11 C11           -1.1536     0.8893     3.8263 C.ar    
  12 C12           -1.2688    -0.0049     4.8745 C.ar    
  13 C13           -0.4965    -1.1516     4.8961 C.ar    
  14 C14            0.3876    -1.4098     3.8664 C.ar    
  15 C15           -3.6661     0.2638     5.4486 C.3     
  16 C16           -2.2373     0.2709     5.9957 C.3     
  17 C17           -2.0967    -0.8106     7.0687 C.3     
  18 C18           -1.9369     1.6189     6.5987 C.ar    
  19 C19           -2.9306     2.5765     6.6803 C.ar    
  20 C20           -2.6551     3.8130     7.2335 C.ar    
  21 C21           -1.3860     4.0918     7.7053 C.ar    
  22 C22           -0.3926     3.1340     7.6245 C.ar    
  23 C23           -0.6693     1.8959     7.0753 C.ar    
  24 H24           -0.1766     1.3378     1.9790 H       
  25 H25           -1.7574     1.7847     3.8121 H       
  26 H26           -0.5878    -1.8483     5.7163 H       
  27 H27            0.9871    -2.3080     3.8813 H       
  28 H28           -3.8833    -0.7112     5.0124 H       
  29 H29           -4.3666     0.4633     6.2595 H       
  30 H30           -3.7663     1.0343     4.6841 H       
  31 H31           -1.0787    -0.8056     7.4585 H       
  32 H32           -2.7972    -0.6111     7.8796 H       
  33 H33           -2.3139    -1.7856     6.6326 H       
  34 H34           -3.9221     2.3586     6.3117 H       
  35 H35           -3.4312     4.5613     7.2966 H       
  36 H36           -1.1706     5.0582     8.1368 H       
  37 H37            0.5990     3.3520     7.9929 H       
  38 H38            0.1059     1.1463     7.0155 H       
@<TRIPOS>BOND
   1    1    2 1
   2    1    6 1
   3    1    7 1
   4    1    8 1
   5    2    3 2
   6    2    4 2
   7    2    5 1
   8    5    9 1
   9    9   10 ar
  10    9   14 ar
  11   10   11 ar
  12   10   24 1
  13   11   12 ar
  14   11   25 1
  15   12   13 ar
  16   12   16 1
  17   13   14 ar
  18   13   26 1
  19   14   27 1
  20   15   16 1
  21   15   28 1
  22   15   29 1
  23   15   30 1
  24   16   17 1
  25   16   18 1
  26   17   31 1
  27   17   32 1
  28   17   33 1
  29   18   19 ar
  30   18   23 ar
  31   19   20 ar
  32   19   34 1
  33   20   21 ar
  34   20   35 1
  35   21   22 ar
  36   21   36 1
  37   22   23 ar
  38   22   37 1
  39   23   38 1

#	End of record

