#	Name: ASD03320073
#	Creating user name:	WinNT
#	Creation time:	15. 06. 2019 20:36

#	Modifying user name:	WinNT
#	Modification time:	15. 06. 2019 20:36

#	Program:	/corina/corina34_cracker 3.40 0067  02.08.2006

@<TRIPOS>MOLECULE
ASD03320073
  43   45    0    0    0
SMALL
NO_CHARGES


@<TRIPOS>ATOM
   1 C1            -0.0077     1.3433    -0.1945 C.ar    
   2 C2             0.0217    -0.0349     0.0275 C.ar    
   3 C3            -1.1538    -0.7588     0.0432 C.ar    
   4 C4            -2.3643    -0.1254    -0.1598 C.ar    
   5 C5            -2.4069     1.2504    -0.3826 C.ar    
   6 C6            -1.2279     1.9876    -0.3942 C.ar    
   7 C7             1.2512     2.1182    -0.2118 C.2     
   8 O8             1.2237     3.3181    -0.4053 O.2     
   9 N9             2.4292     1.4944    -0.0131 N.am    
  10 C10            3.6280     2.2094    -0.1264 C.ar    
  11 C11           -3.7094     1.9281    -0.6015 C.2     
  12 C12            3.6885     3.5339     0.2864 C.ar    
  13 C13            4.8709     4.2382     0.1744 C.ar    
  14 C14            5.9979     3.6232    -0.3510 C.ar    
  15 C15            5.9382     2.3001    -0.7636 C.ar    
  16 C16            4.7582     1.5926    -0.6464 C.ar    
  17 O17            7.1616     4.3177    -0.4619 O.3     
  18 C18            8.2824     3.6222    -1.0115 C.3     
  19 F19            7.9755     3.1936    -2.3074 F       
  20 F20            9.3880     4.4785    -1.0531 F       
  21 F21            8.5810     2.5136    -0.2121 F       
  22 C22           -4.9166     1.2511    -0.5965 C.2     
  23 C23           -5.9917     2.0605    -0.8170 C.2     
  24 S24           -5.4468     3.7169    -1.0345 S.3     
  25 C25           -3.8160     3.2664    -0.8179 C.2     
  26 C26           -7.3867     1.6172    -0.8652 C.2     
  27 O27           -8.3711     2.5112    -1.0915 O.3     
  28 O28           -7.6576     0.4429    -0.7013 O.2     
  29 C29           -9.7300     2.0009    -1.1260 C.3     
  30 H30            0.9653    -0.5354     0.1869 H       
  31 H31           -1.1267    -1.8247     0.2146 H       
  32 H32           -3.2803    -0.6974    -0.1464 H       
  33 H33           -1.2564     3.0534    -0.5664 H       
  34 H34            2.4468     0.5502     0.2084 H       
  35 H35            2.8110     4.0130     0.6948 H       
  36 H36            4.9181     5.2683     0.4954 H       
  37 H37            6.8160     1.8221    -1.1728 H       
  38 H38            4.7120     0.5624    -0.9674 H       
  39 H39           -4.9990     0.1866    -0.4339 H       
  40 H40           -2.9809     3.9504    -0.8532 H       
  41 H41           -9.8196     1.2594    -1.9199 H       
  42 H42           -9.9688     1.5384    -0.1683 H       
  43 H43          -10.4216     2.8217    -1.3157 H       
@<TRIPOS>BOND
   1    1    2 ar
   2    1    7 1
   3    1    6 ar
   4    2    3 ar
   5    2   30 1
   6    3    4 ar
   7    3   31 1
   8    4    5 ar
   9    4   32 1
  10    5    6 ar
  11    5   11 1
  12    6   33 1
  13    7    8 2
  14    7    9 am
  15    9   10 1
  16    9   34 1
  17   10   12 ar
  18   10   16 ar
  19   11   22 1
  20   11   25 2
  21   12   13 ar
  22   12   35 1
  23   13   14 ar
  24   13   36 1
  25   14   15 ar
  26   14   17 1
  27   15   16 ar
  28   15   37 1
  29   16   38 1
  30   17   18 1
  31   18   19 1
  32   18   20 1
  33   18   21 1
  34   22   23 2
  35   22   39 1
  36   23   24 1
  37   23   26 1
  38   24   25 1
  39   25   40 1
  40   26   27 1
  41   26   28 2
  42   27   29 1
  43   29   41 1
  44   29   42 1
  45   29   43 1

#	End of record

