#	Name: ASD08710095
#	Creating user name:	WinNT
#	Creation time:	15. 06. 2019 21:19

#	Modifying user name:	WinNT
#	Modification time:	15. 06. 2019 21:19

#	Program:	/corina/corina34_cracker 3.40 0067  02.08.2006

@<TRIPOS>MOLECULE
ASD08710095
  49   51    0    0    0
SMALL
NO_CHARGES


@<TRIPOS>ATOM
   1 N1            -0.1506     1.5092    -0.3538 N.am    
   2 C2            -0.0286     0.0481    -0.4556 C.3     
   3 C3             0.2419    -0.3202    -1.9196 C.3     
   4 N4             1.3400     0.5187    -2.4197 N.am    
   5 C5             1.2181     1.9798    -2.3179 C.3     
   6 C6             0.9475     2.3482    -0.8539 C.3     
   7 S7             2.6909    -0.1699    -3.0856 S.o2    
   8 O8             3.7349     0.7849    -2.9528 O.2     
   9 O9             2.7708    -1.4872    -2.5589 O.2     
  10 C10            2.3909    -0.3421    -4.8133 C.ar    
  11 C11            2.7350     0.6786    -5.6797 C.ar    
  12 C12            2.4995     0.5434    -7.0351 C.ar    
  13 C13            1.9205    -0.6126    -7.5242 C.ar    
  14 C14            1.5772    -1.6337    -6.6579 C.ar    
  15 C15            1.8166    -1.5003    -5.3030 C.ar    
  16 C16            1.6629    -0.7595    -9.0017 C.3     
  17 F17            2.7795    -1.3384    -9.6144 F       
  18 F18            0.5453    -1.5770    -9.2013 F       
  19 F19            1.4249     0.5005    -9.5612 F       
  20 C20           -1.2522     2.0698     0.1835 C.2     
  21 O21           -2.2028     1.3745     0.4844 O.2     
  22 C22           -0.1355     4.2533     0.6490 C.ar    
  23 C23           -1.3044     3.5303     0.4069 C.ar    
  24 C24           -2.5271     4.2113     0.3788 C.ar    
  25 C25           -2.5214     5.5785     0.5935 C.ar    
  26 C26           -1.3196     6.2222     0.8267 C.ar    
  27 N27           -0.1818     5.5541     0.8475 N.ar    
  28 C28           -3.8110     6.3579     0.5729 C.3     
  29 C29           -1.3303    -0.6093     0.0072 C.3     
  30 H30            0.7983    -0.2941     0.1666 H       
  31 H31            0.5246    -1.3708    -1.9862 H       
  32 H32           -0.6545    -0.1417    -2.5134 H       
  33 H33            2.1454     2.4481    -2.6476 H       
  34 H34            0.3911     2.3221    -2.9401 H       
  35 H35            0.6648     3.3987    -0.7873 H       
  36 H36            1.8440     2.1696    -0.2601 H       
  37 H37            3.1874     1.5817    -5.2976 H       
  38 H38            2.7677     1.3412    -7.7119 H       
  39 H39            1.1245    -2.5367    -7.0399 H       
  40 H40            1.5518    -2.2995    -4.6266 H       
  41 H41            0.8147     3.7408     0.6780 H       
  42 H42           -3.4510     3.6835     0.1940 H       
  43 H43           -1.3122     7.2890     0.9946 H       
  44 H44           -4.2336     6.3878     1.5772 H       
  45 H45           -3.6160     7.3742     0.2304 H       
  46 H46           -4.5163     5.8755    -0.1038 H       
  47 H47           -2.1578    -0.2453    -0.6018 H       
  48 H48           -1.2490    -1.6910    -0.0995 H       
  49 H49           -1.5116    -0.3599     1.0527 H       
@<TRIPOS>BOND
   1    1    2 1
   2    1    6 1
   3    1   20 am
   4    2    3 1
   5    2   29 1
   6    2   30 1
   7    3    4 1
   8    3   31 1
   9    3   32 1
  10    4    5 1
  11    4    7 am
  12    5    6 1
  13    5   33 1
  14    5   34 1
  15    6   35 1
  16    6   36 1
  17    7    8 2
  18    7    9 2
  19    7   10 1
  20   10   11 ar
  21   10   15 ar
  22   11   12 ar
  23   11   37 1
  24   12   13 ar
  25   12   38 1
  26   13   14 ar
  27   13   16 1
  28   14   15 ar
  29   14   39 1
  30   15   40 1
  31   16   17 1
  32   16   18 1
  33   16   19 1
  34   20   21 2
  35   20   23 1
  36   22   23 ar
  37   22   27 ar
  38   22   41 1
  39   23   24 ar
  40   24   25 ar
  41   24   42 1
  42   25   26 ar
  43   25   28 1
  44   26   27 ar
  45   26   43 1
  46   28   44 1
  47   28   45 1
  48   28   46 1
  49   29   47 1
  50   29   48 1
  51   29   49 1

#	End of record

