#	Name: ASD01140317
#	Creating user name:	WinNT
#	Creation time:	15. 06. 2019 19:00

#	Modifying user name:	WinNT
#	Modification time:	15. 06. 2019 19:00

#	Program:	/corina/corina34_cracker 3.40 0067  02.08.2006

@<TRIPOS>MOLECULE
ASD01140317
  57   61    0    0    0
SMALL
NO_CHARGES


@<TRIPOS>ATOM
   1 N1            -0.0498     1.3220     0.0866 N.pl3   
   2 C2            -0.0180    -0.0166     0.0731 C.2     
   3 C3             1.1629    -0.7271    -0.0088 C.2     
   4 C4             2.4335     0.0112    -0.0839 C.2     
   5 C5             2.3546     1.4838    -0.0662 C.ar    
   6 C6             3.4906     2.2863    -0.1317 C.ar    
   7 C7             3.3280     3.6656    -0.1090 C.ar    
   8 N8             2.1213     4.2073    -0.0266 N.ar    
   9 C9             1.0227     3.4843     0.0373 C.ar    
  10 C10            1.0899     2.0943     0.0201 C.ar    
  11 C11            1.1511    -2.1984    -0.0202 C.2     
  12 O12            1.4350    -2.8167     0.9881 O.2     
  13 N13            0.8258    -2.8610    -1.1479 N.am    
  14 O14            3.5028    -0.5680    -0.1571 O.2     
  15 C15           -1.3494     1.9931     0.1695 C.3     
  16 N16            4.4482     4.4904    -0.1733 N.pl3   
  17 C17            6.7739     4.8845    -0.9296 C.3     
  18 C18            5.7868     3.9020    -0.2642 C.3     
  19 C19            6.4006     3.7156     1.1396 C.3     
  20 C20            7.8796     3.9863     0.9644 C.ar    
  21 C21            8.9528     3.6699     1.7806 C.ar    
  22 C22           10.2355     4.0233     1.4104 C.ar    
  23 C23           10.4500     4.6950     0.2212 C.ar    
  24 C24            9.3811     5.0114    -0.5941 C.ar    
  25 C25            8.0940     4.6578    -0.2245 C.ar    
  26 C26            0.8975    -4.3294    -1.2111 C.3     
  27 C27           -0.4325    -4.8551    -1.7630 C.3     
  28 O28           -0.7336    -4.1808    -2.9872 O.3     
  29 C29           -0.9172    -2.7699    -2.8484 C.3     
  30 C30            0.3826    -2.1377    -2.3503 C.3     
  31 C31           -1.7165     2.2142     1.6383 C.3     
  32 H32           -0.9497    -0.5600     0.1285 H       
  33 H33            4.4748     1.8468    -0.1983 H       
  34 H34            0.0622     3.9736     0.1035 H       
  35 H35           -1.2947     2.9551    -0.3401 H       
  36 H36           -2.1095     1.3730    -0.3056 H       
  37 H37            4.3422     5.4544    -0.1580 H       
  38 H38            6.8698     4.6625    -1.9924 H       
  39 H39            6.4397     5.9119    -0.7856 H       
  40 H40            5.7567     2.9566    -0.8059 H       
  41 H41            5.9660     4.4287     1.8401 H       
  42 H42            6.2416     2.6956     1.4895 H       
  43 H43            8.7860     3.1455     2.7099 H       
  44 H44           11.0701     3.7754     2.0494 H       
  45 H45           11.4524     4.9725    -0.0697 H       
  46 H46            9.5495     5.5361    -1.5229 H       
  47 H47            1.7125    -4.6291    -1.8700 H       
  48 H48            1.0653    -4.7321    -0.2123 H       
  49 H49           -0.3521    -5.9263    -1.9476 H       
  50 H50           -1.2262    -4.6681    -1.0397 H       
  51 H51           -1.1856    -2.3409    -3.8138 H       
  52 H52           -1.7127    -2.5753    -2.1290 H       
  53 H53            0.2113    -1.0890    -2.1075 H       
  54 H54            1.1482    -2.2160    -3.1222 H       
  55 H55           -1.7712     1.2522     2.1479 H       
  56 H56           -0.9564     2.8344     2.1134 H       
  57 H57           -2.6834     2.7135     1.6999 H       
@<TRIPOS>BOND
   1    1    2 1
   2    1   10 1
   3    1   15 1
   4    2    3 2
   5    2   32 1
   6    3    4 1
   7    3   11 1
   8    4    5 1
   9    4   14 2
  10    5    6 ar
  11    5   10 ar
  12    6    7 ar
  13    6   33 1
  14    7    8 ar
  15    7   16 1
  16    8    9 ar
  17    9   10 ar
  18    9   34 1
  19   11   12 2
  20   11   13 am
  21   13   26 1
  22   13   30 1
  23   15   31 1
  24   15   35 1
  25   15   36 1
  26   16   18 1
  27   16   37 1
  28   17   18 1
  29   17   25 1
  30   17   38 1
  31   17   39 1
  32   18   19 1
  33   18   40 1
  34   19   20 1
  35   19   41 1
  36   19   42 1
  37   20   21 ar
  38   20   25 ar
  39   21   22 ar
  40   21   43 1
  41   22   23 ar
  42   22   44 1
  43   23   24 ar
  44   23   45 1
  45   24   25 ar
  46   24   46 1
  47   26   27 1
  48   26   47 1
  49   26   48 1
  50   27   28 1
  51   27   49 1
  52   27   50 1
  53   28   29 1
  54   29   30 1
  55   29   51 1
  56   29   52 1
  57   30   53 1
  58   30   54 1
  59   31   55 1
  60   31   56 1
  61   31   57 1

#	End of record

