#	Name: ASD01940104
#	Creating user name:	WinNT
#	Creation time:	15. 06. 2019 20:11

#	Modifying user name:	WinNT
#	Modification time:	15. 06. 2019 20:11

#	Program:	/corina/corina34_cracker 3.40 0067  02.08.2006

@<TRIPOS>MOLECULE
ASD01940104
  32   33    0    0    0
SMALL
NO_CHARGES


@<TRIPOS>ATOM
   1 Br1            2.7861    -4.3949    -1.5740 Br      
   2 F2             1.9028     1.5963     2.2877 F       
   3 C3             1.0648     2.1496     1.3840 C.ar    
   4 C4             1.3895     2.1333     0.0341 C.ar    
   5 C5             0.5214     2.7051    -0.8946 C.ar    
   6 C6            -0.6622     3.2873    -0.4665 C.ar    
   7 C7            -0.9802     3.3010     0.8791 C.ar    
   8 C8            -0.1224     2.7288     1.8029 C.ar    
   9 N9             2.5873     1.5440    -0.3935 N.pl3   
  10 N10            0.8443     2.6919    -2.2582 N.am    
  11 C11            2.6337     0.1731    -0.6662 C.ar    
  12 C12            1.4785    -0.5922    -0.5837 C.ar    
  13 C13            1.5272    -1.9465    -0.8535 C.ar    
  14 C14            2.7253    -2.5411    -1.2058 C.ar    
  15 C15            3.8799    -1.7823    -1.2889 C.ar    
  16 C16            3.8370    -0.4258    -1.0263 C.ar    
  17 F17            4.9637     0.3151    -1.1078 F       
  18 F18           -0.4409     2.7396     3.1158 F       
  19 S19            0.4284     3.9743    -3.2199 S.o2    
  20 O20            0.9935     3.6609    -4.4855 O.2     
  21 O21           -0.9778     4.0945    -3.0550 O.2     
  22 C22            1.2801     5.3928    -2.4762 C.3     
  23 Cl23           3.0586     5.0963    -2.4815 Cl      
  24 Cl24           0.9158     6.8796    -3.4289 Cl      
  25 H25           -1.3360     3.7308    -1.1847 H       
  26 H26           -1.9023     3.7557     1.2100 H       
  27 H27            3.3839     2.0870    -0.5003 H       
  28 H28            1.3114     1.9317    -2.6387 H       
  29 H29            0.5423    -0.1293    -0.3084 H       
  30 H30            0.6283    -2.5418    -0.7889 H       
  31 H31            4.8140    -2.2494    -1.5639 H       
  32 H32            0.9370     5.5255    -1.4502 H       
@<TRIPOS>BOND
   1    1   14 1
   2    2    3 1
   3    3    4 ar
   4    3    8 ar
   5    4    5 ar
   6    4    9 1
   7    5    6 ar
   8    5   10 1
   9    6    7 ar
  10    6   25 1
  11    7    8 ar
  12    7   26 1
  13    8   18 1
  14    9   11 1
  15    9   27 1
  16   10   19 am
  17   10   28 1
  18   11   12 ar
  19   11   16 ar
  20   12   13 ar
  21   12   29 1
  22   13   14 ar
  23   13   30 1
  24   14   15 ar
  25   15   16 ar
  26   15   31 1
  27   16   17 1
  28   19   20 2
  29   19   21 2
  30   19   22 1
  31   22   23 1
  32   22   24 1
  33   22   32 1

#	End of record

