#	Name: ASD01884875
#	Creating user name:	WinNT
#	Creation time:	15. 06. 2019 19:49

#	Modifying user name:	WinNT
#	Modification time:	15. 06. 2019 19:49

#	Program:	/corina/corina34_cracker 3.40 0067  02.08.2006

@<TRIPOS>MOLECULE
ASD01884875
  41   46    0    0    0
SMALL
NO_CHARGES


@<TRIPOS>ATOM
   1 N1            -0.0157     1.3097     0.0092 N.ar    
   2 C2             0.0021    -0.0041     0.0020 C.ar    
   3 C3             1.2055    -0.7163    -0.0133 C.ar    
   4 C4             2.4100    -0.0137    -0.0210 C.ar    
   5 C5             2.3539     1.3801    -0.0130 C.ar    
   6 C6             1.1020     2.0259     0.0024 C.ar    
   7 C7             3.3620     2.4425    -0.0162 C.2     
   8 C8             2.6981     3.6088    -0.0031 C.2     
   9 N9             1.3487     3.3777     0.0080 N.pl3   
  10 C10            1.2008    -2.1982    -0.0207 C.2     
  11 C11            0.6836    -2.8895    -1.1011 C.2     
  12 C12            1.7311    -2.9204     1.0758 C.2     
  13 C13            1.7259    -4.2665     1.0673 C.2     
  14 N14            1.2123    -4.9578     0.0076 N.pl3   
  15 C15            0.6932    -4.2957    -1.0784 C.2     
  16 Cl16           0.0318    -2.0346    -2.4642 Cl      
  17 C17            1.0781    -6.2846    -0.2673 C.2     
  18 N18            0.5098    -6.3884    -1.4409 N.2     
  19 N19            0.2785    -5.2210    -1.9300 N.2     
  20 C20            1.5064    -7.4257     0.6191 C.3     
  21 C21            0.3185     4.4193     0.0233 C.3     
  22 C22            0.4251    -8.4030     1.0844 C.3     
  23 C23            1.4470    -8.8372     0.0318 C.3     
  24 C24            0.3147     5.3919     1.2044 C.3     
  25 C25            0.7739     5.8663    -0.1758 C.3     
  26 H26           -0.9324    -0.5454     0.0084 H       
  27 H27            3.3571    -0.5326    -0.0325 H       
  28 H28            4.4340     2.3123    -0.0269 H       
  29 H29            3.1600     4.5850    -0.0010 H       
  30 H30            2.1416    -2.3894     1.9219 H       
  31 H31            2.1334    -4.8065     1.9091 H       
  32 H32            2.3162    -7.2030     1.3138 H       
  33 H33           -0.6460     4.1327    -0.3958 H       
  34 H34            0.5238    -8.8236     2.0852 H       
  35 H35           -0.5960    -8.2207     0.7495 H       
  36 H36            1.0982    -8.9405    -0.9957 H       
  37 H37            2.2179    -9.5434     0.3400 H       
  38 H38           -0.6523     5.7454     1.5621 H       
  39 H39            1.0786     5.2568     1.9700 H       
  40 H40            1.8400     6.0433    -0.3182 H       
  41 H41            0.1090     6.5320    -0.7262 H       
@<TRIPOS>BOND
   1    1    2 ar
   2    1    6 ar
   3    2    3 ar
   4    2   26 1
   5    3    4 ar
   6    3   10 1
   7    4    5 ar
   8    4   27 1
   9    5    6 ar
  10    5    7 1
  11    6    9 1
  12    7    8 2
  13    7   28 1
  14    8    9 1
  15    8   29 1
  16    9   21 1
  17   10   11 2
  18   10   12 1
  19   11   16 1
  20   11   15 1
  21   12   13 2
  22   12   30 1
  23   13   14 1
  24   13   31 1
  25   14   15 1
  26   14   17 1
  27   15   19 2
  28   17   18 2
  29   17   20 1
  30   18   19 1
  31   20   22 1
  32   20   23 1
  33   20   32 1
  34   21   24 1
  35   21   25 1
  36   21   33 1
  37   22   23 1
  38   22   34 1
  39   22   35 1
  40   23   36 1
  41   23   37 1
  42   24   25 1
  43   24   38 1
  44   24   39 1
  45   25   40 1
  46   25   41 1

#	End of record

