#	Name: ASD07931886
#	Creating user name:	WinNT
#	Creation time:	15. 06. 2019 21:13

#	Modifying user name:	WinNT
#	Modification time:	15. 06. 2019 21:13

#	Program:	/corina/corina34_cracker 3.40 0067  02.08.2006

@<TRIPOS>MOLECULE
ASD07931886
  32   32    0    0    0
SMALL
NO_CHARGES


@<TRIPOS>ATOM
   1 C1            -0.0187     1.5258     0.0104 C.3     
   2 C2             0.0021    -0.0041     0.0020 C.3     
   3 C3             0.7421    -0.5109     1.2415 C.3     
   4 C4             0.0259    -0.0175     2.5003 C.3     
   5 C5             0.7548    -0.5167     3.7212 C.2     
   6 C6             1.1634     0.3311     4.6324 C.2     
   7 O7            -1.3386    -0.4987     0.0122 O.3     
   8 C8             0.7074    -0.4901    -1.2379 C.ar    
   9 C9            -0.0114    -0.7239    -2.3952 C.ar    
  10 C10            0.6356    -1.1697    -3.5325 C.ar    
  11 C11            2.0016    -1.3813    -3.5126 C.ar    
  12 C12            2.7205    -1.1467    -2.3555 C.ar    
  13 C13            2.0742    -0.6967    -1.2194 C.ar    
  14 C14            2.7068    -1.8683    -4.7522 C.3     
  15 F15            3.1239    -0.7709    -5.5130 F       
  16 F16            3.8202    -2.6319    -4.3857 F       
  17 F17            1.8309    -2.6543    -5.5086 F       
  18 H18            1.0039     1.9031     0.0027 H       
  19 H19           -0.5459     1.8868    -0.8726 H       
  20 H20           -0.5289     1.8773     0.9072 H       
  21 H21            0.7568    -1.6008     1.2356 H       
  22 H22            1.7647    -0.1336     1.2338 H       
  23 H23            0.0111     1.0724     2.5063 H       
  24 H24           -0.9967    -0.3948     2.5081 H       
  25 H25            0.9402    -1.5734     3.8450 H       
  26 H26            0.9780     1.3879     4.5087 H       
  27 H27            1.6858    -0.0266     5.5074 H       
  28 H28           -1.4018    -1.4636     0.0076 H       
  29 H29           -1.0785    -0.5585    -2.4108 H       
  30 H30            0.0739    -1.3531    -4.4366 H       
  31 H31            3.7876    -1.3123    -2.3398 H       
  32 H32            2.6364    -0.5098    -0.3165 H       
@<TRIPOS>BOND
   1    1    2 1
   2    1   18 1
   3    1   19 1
   4    1   20 1
   5    2    3 1
   6    2    7 1
   7    2    8 1
   8    3    4 1
   9    3   21 1
  10    3   22 1
  11    4    5 1
  12    4   23 1
  13    4   24 1
  14    5    6 2
  15    5   25 1
  16    6   26 1
  17    6   27 1
  18    7   28 1
  19    8    9 ar
  20    8   13 ar
  21    9   10 ar
  22    9   29 1
  23   10   11 ar
  24   10   30 1
  25   11   12 ar
  26   11   14 1
  27   12   13 ar
  28   12   31 1
  29   13   32 1
  30   14   15 1
  31   14   16 1
  32   14   17 1

#	End of record

