#	Name: ASD01180255
#	Creating user name:	WinNT
#	Creation time:	15. 06. 2019 19:07

#	Modifying user name:	WinNT
#	Modification time:	15. 06. 2019 19:07

#	Program:	/corina/corina34_cracker 3.40 0067  02.08.2006

@<TRIPOS>MOLECULE
ASD01180255
  26   27    0    0    0
SMALL
NO_CHARGES


@<TRIPOS>ATOM
   1 C1            -0.0111     1.3702    -0.1906 C.ar    
   2 C2            -0.0039     0.0359     0.1997 C.ar    
   3 C3             1.2163    -0.6131     0.3817 C.ar    
   4 C4             2.3807     0.1006     0.1655 C.ar    
   5 C5             2.2962     1.4358    -0.2246 C.ar    
   6 N6             1.1164     2.0205    -0.3881 N.ar    
   7 N7            -1.2046    -0.6460     0.4073 N.pl3   
   8 C8             3.7241    -0.5570     0.3497 C.3     
   9 C9             3.5382     2.2116    -0.4590 C.ar    
  10 C10            4.5920     1.6451    -1.1740 C.ar    
  11 C11            5.7455     2.3711    -1.3894 C.ar    
  12 C12            5.8572     3.6601    -0.8965 C.ar    
  13 C13            4.8133     4.2273    -0.1856 C.ar    
  14 C14            3.6534     3.5117     0.0302 C.ar    
  15 Cl15           7.3113     4.5680    -1.1704 Cl      
  16 H16           -0.9529     1.8780    -0.3378 H       
  17 H17            1.2513    -1.6491     0.6849 H       
  18 H18           -2.0504    -0.1887     0.2793 H       
  19 H19           -1.1928    -1.5769     0.6796 H       
  20 H20            4.0833    -0.9251    -0.6113 H       
  21 H21            4.4325     0.1692     0.7484 H       
  22 H22            3.6282    -1.3906     1.0454 H       
  23 H23            4.5060     0.6396    -1.5586 H       
  24 H24            6.5628     1.9329    -1.9430 H       
  25 H25            4.9052     5.2331     0.1968 H       
  26 H26            2.8379     3.9567     0.5810 H       
@<TRIPOS>BOND
   1    1    2 ar
   2    1    6 ar
   3    1   16 1
   4    2    3 ar
   5    2    7 1
   6    3    4 ar
   7    3   17 1
   8    4    5 ar
   9    4    8 1
  10    5    6 ar
  11    5    9 1
  12    7   18 1
  13    7   19 1
  14    8   20 1
  15    8   21 1
  16    8   22 1
  17    9   10 ar
  18    9   14 ar
  19   10   11 ar
  20   10   23 1
  21   11   12 ar
  22   11   24 1
  23   12   13 ar
  24   12   15 1
  25   13   14 ar
  26   13   25 1
  27   14   26 1

#	End of record

