#	Name: ASD03498003
#	Creating user name:	WinNT
#	Creation time:	15. 06. 2019 20:42

#	Modifying user name:	WinNT
#	Modification time:	15. 06. 2019 20:42

#	Program:	/corina/corina34_cracker 3.40 0067  02.08.2006

@<TRIPOS>MOLECULE
ASD03498003
  41   43    0    0    0
SMALL
NO_CHARGES


@<TRIPOS>ATOM
   1 C1             4.8257     1.7167     3.1409 C.ar    
   2 C2             5.0880     0.3644     3.1681 C.ar    
   3 C3             4.8472    -0.4138     2.0157 C.ar    
   4 C4             4.3395     0.2104     0.8499 C.ar    
   5 C5             4.0843     1.5965     0.8610 C.ar    
   6 C6             4.3269     2.3234     1.9916 C.ar    
   7 C7             5.1019    -1.7943     2.0030 C.ar    
   8 C8             4.8584    -2.5142     0.8733 C.ar    
   9 C9             4.3592    -1.9005    -0.2739 C.ar    
  10 C10            4.0999    -0.5643    -0.2970 C.ar    
  11 C11            2.0798     4.0450    -0.0263 C.ar    
  12 C12            3.3707     3.5454    -0.1947 C.ar    
  13 O13            3.5970     2.2084    -0.2507 O.3     
  14 C14            1.8872     5.4093     0.0257 C.ar    
  15 N15            2.9053     6.2424    -0.0821 N.ar    
  16 C16            4.1470     5.8096    -0.2427 C.ar    
  17 C17            4.4205     4.4507    -0.3044 C.ar    
  18 C18            6.0367     9.0355    -0.6366 C.3     
  19 C19            4.9214     8.0487    -0.4052 C.2     
  20 N20            5.1896     6.7290    -0.3517 N.am    
  21 O21            3.7826     8.4422    -0.2673 O.2     
  22 N22            5.5887    -0.2318     4.3275 N.pl3   
  23 O23            5.5040    10.3614    -0.6521 O.3     
  24 C24            6.4841    11.3791    -0.8660 C.3     
  25 H25            5.0052     2.3126     4.0235 H       
  26 H26            4.1293     3.3851     1.9938 H       
  27 H27            5.4895    -2.2828     2.8848 H       
  28 H28            5.0551    -3.5761     0.8661 H       
  29 H29            4.1748    -2.4937    -1.1573 H       
  30 H30            3.7133    -0.1019    -1.1932 H       
  31 H31            1.2401     3.3711     0.0580 H       
  32 H32            0.8895     5.8017     0.1560 H       
  33 H33            5.4340     4.1012    -0.4354 H       
  34 H34            6.7709     8.9483     0.1643 H       
  35 H35            6.5154     8.8250    -1.5929 H       
  36 H36            6.1079     6.4188    -0.3890 H       
  37 H37            5.7532     0.3064     5.1175 H       
  38 H38            5.7721    -1.1842     4.3428 H       
  39 H39            7.2276    11.3405    -0.0699 H       
  40 H40            6.9722    11.2173    -1.8271 H       
  41 H41            6.0002    12.3557    -0.8641 H       
@<TRIPOS>BOND
   1    1    2 ar
   2    1    6 ar
   3    1   25 1
   4    2    3 ar
   5    2   22 1
   6    3    4 ar
   7    3    7 ar
   8    4    5 ar
   9    4   10 ar
  10    5    6 ar
  11    5   13 1
  12    6   26 1
  13    7    8 ar
  14    7   27 1
  15    8    9 ar
  16    8   28 1
  17    9   10 ar
  18    9   29 1
  19   10   30 1
  20   11   12 ar
  21   11   14 ar
  22   11   31 1
  23   12   13 1
  24   12   17 ar
  25   14   15 ar
  26   14   32 1
  27   15   16 ar
  28   16   17 ar
  29   16   20 1
  30   17   33 1
  31   18   19 1
  32   18   23 1
  33   18   34 1
  34   18   35 1
  35   19   20 am
  36   19   21 2
  37   20   36 1
  38   22   37 1
  39   22   38 1
  40   23   24 1
  41   24   39 1
  42   24   40 1
  43   24   41 1

#	End of record

