#	Name: ASD01913056
#	Creating user name:	WinNT
#	Creation time:	15. 06. 2019 20:00

#	Modifying user name:	WinNT
#	Modification time:	15. 06. 2019 20:00

#	Program:	/corina/corina34_cracker 3.40 0067  02.08.2006

@<TRIPOS>MOLECULE
ASD01913056
  31   32    0    0    0
SMALL
NO_CHARGES


@<TRIPOS>ATOM
   1 C1            -0.0169     1.3943     0.0097 C.ar    
   2 C2             0.0021    -0.0041     0.0020 C.ar    
   3 C3            -1.2600    -0.7609     0.0095 C.2     
   4 C4            -1.2351    -2.2677     0.0012 C.3     
   5 O5            -2.3200    -0.1722     0.0224 O.2     
   6 C6            -2.6473    -2.7935     0.0113 C.2     
   7 C7            -2.8927    -4.2470     0.0057 C.ar    
   8 O8            -3.5817    -2.0212     0.0240 O.2     
   9 N9            -1.8639    -5.0888    -0.0082 N.ar    
  10 C10            1.2266    -0.6795    -0.0133 C.ar    
  11 C11            2.4048     0.0368    -0.0207 C.ar    
  12 C12            2.3777     1.4206    -0.0130 C.ar    
  13 C13            1.1699     2.0963     0.0021 C.ar    
  14 C14           -2.0386    -6.3908    -0.0136 C.ar    
  15 C15           -3.3158    -6.9393    -0.0053 C.ar    
  16 C16           -4.4189    -6.0950     0.0093 C.ar    
  17 C17           -4.2036    -4.7276     0.0209 C.ar    
  18 F18           -3.4827    -8.2799    -0.0119 F       
  19 C19           -0.8383    -7.3019    -0.0295 C.3     
  20 H20           -0.9586     1.9230     0.0171 H       
  21 H21           -0.7235    -2.6177    -0.8954 H       
  22 H22           -0.7072    -2.6272     0.8844 H       
  23 H23            1.2494    -1.7592    -0.0190 H       
  24 H24            3.3512    -0.4833    -0.0322 H       
  25 H25            3.3039     1.9760    -0.0189 H       
  26 H26            1.1569     3.1762     0.0084 H       
  27 H27           -5.4216    -6.4963     0.0160 H       
  28 H28           -5.0380    -4.0421     0.0324 H       
  29 H29           -0.5395    -7.5271     0.9943 H       
  30 H30           -1.0917    -8.2277    -0.5460 H       
  31 H31           -0.0155    -6.8099    -0.5483 H       
@<TRIPOS>BOND
   1    1    2 ar
   2    1   13 ar
   3    1   20 1
   4    2    3 1
   5    2   10 ar
   6    3    4 1
   7    3    5 2
   8    4    6 1
   9    4   21 1
  10    4   22 1
  11    6    7 1
  12    6    8 2
  13    7    9 ar
  14    7   17 ar
  15    9   14 ar
  16   10   11 ar
  17   10   23 1
  18   11   12 ar
  19   11   24 1
  20   12   13 ar
  21   12   25 1
  22   13   26 1
  23   14   15 ar
  24   14   19 1
  25   15   16 ar
  26   15   18 1
  27   16   17 ar
  28   16   27 1
  29   17   28 1
  30   19   29 1
  31   19   30 1
  32   19   31 1

#	End of record

