#	Name: ASD02198017
#	Creating user name:	WinNT
#	Creation time:	15. 06. 2019 20:18

#	Modifying user name:	WinNT
#	Modification time:	15. 06. 2019 20:18

#	Program:	/corina/corina34_cracker 3.40 0067  02.08.2006

@<TRIPOS>MOLECULE
ASD02198017
  36   38    0    0    0
SMALL
NO_CHARGES


@<TRIPOS>ATOM
   1 C1             0.0635     1.4562     0.1452 C.3     
   2 C2             0.0907    -0.0464     0.1146 C.2     
   3 N3             0.9573    -0.7193    -0.6689 N.am    
   4 C4             1.9612     0.0023    -1.3166 C.2     
   5 C5             2.2458     1.3006    -1.0125 C.2     
   6 C6             1.4789     2.0321     0.0815 C.3     
   7 O7            -0.6842    -0.6676     0.8108 O.2     
   8 S8             3.0147    -0.5741    -2.5935 S.3     
   9 C9             3.8168     0.9873    -2.6908 C.2     
  10 C10            3.2627     1.8432    -1.7707 C.2     
  11 C11            4.8664     1.3106    -3.5758 C.2     
  12 O12            5.3540     2.4273    -3.5607 O.2     
  13 N13            5.3300     0.3845    -4.4383 N.am    
  14 N14            3.6937     3.1577    -1.6154 N.pl3   
  15 C15            1.4144     3.5029    -0.2403 C.ar    
  16 C16            1.9587     4.4260     0.6330 C.ar    
  17 C17            0.8161     3.9286    -1.4114 C.ar    
  18 C18            0.7570     5.2778    -1.7066 C.ar    
  19 C19            1.2958     6.2013    -0.8305 C.ar    
  20 C20            1.8996     5.7752     0.3378 C.ar    
  21 C21            1.2318     7.6721    -1.1526 C.3     
  22 H22           -0.5100     1.8211    -0.7068 H       
  23 H23           -0.4162     1.7867     1.0665 H       
  24 H24            0.8852    -1.6802    -0.7793 H       
  25 H25            1.9778     1.8869     1.0397 H       
  26 H26            4.9418    -0.5044    -4.4504 H       
  27 H27            6.0518     0.6068    -5.0470 H       
  28 H28            4.1557     3.6056    -2.3413 H       
  29 H29            3.5320     3.6258    -0.7814 H       
  30 H30            2.4299     4.0931     1.5460 H       
  31 H31            0.3951     3.2071    -2.0960 H       
  32 H32            0.2901     5.6103    -2.6220 H       
  33 H33            2.3206     6.4966     1.0223 H       
  34 H34            0.3129     8.0936    -0.7451 H       
  35 H35            2.0906     8.1782    -0.7116 H       
  36 H36            1.2457     7.8081    -2.2339 H       
@<TRIPOS>BOND
   1    1    2 1
   2    1    6 1
   3    1   22 1
   4    1   23 1
   5    2    3 am
   6    2    7 2
   7    3    4 1
   8    3   24 1
   9    4    5 2
  10    4    8 1
  11    5    6 1
  12    5   10 1
  13    6   15 1
  14    6   25 1
  15    8    9 1
  16    9   10 2
  17    9   11 1
  18   10   14 1
  19   11   12 2
  20   11   13 am
  21   13   26 1
  22   13   27 1
  23   14   28 1
  24   14   29 1
  25   15   16 ar
  26   15   17 ar
  27   16   20 ar
  28   16   30 1
  29   17   18 ar
  30   17   31 1
  31   18   19 ar
  32   18   32 1
  33   19   20 ar
  34   19   21 1
  35   20   33 1
  36   21   34 1
  37   21   35 1
  38   21   36 1

#	End of record

