#	Name: ASD01150984
#	Creating user name:	WinNT
#	Creation time:	15. 06. 2019 19:05

#	Modifying user name:	WinNT
#	Modification time:	15. 06. 2019 19:05

#	Program:	/corina/corina34_cracker 3.40 0067  02.08.2006

@<TRIPOS>MOLECULE
ASD01150984
  49   50    0    0    0
SMALL
NO_CHARGES


@<TRIPOS>ATOM
   1 C1            -0.0278     1.4905     0.4952 C.2     
   2 N2             0.0419     0.1965     0.4321 N.2     
   3 C3            -1.2204    -0.3023     0.3042 C.2     
   4 C4            -2.0786     0.7837     0.2928 C.2     
   5 O5            -1.3102     1.8802     0.4186 O.3     
   6 C6             1.1525     2.4164     0.6391 C.3     
   7 N7            -3.4556     0.7478     0.1798 N.am    
   8 C8            -1.5960    -1.7149     0.1987 C.2     
   9 O9            -2.7665    -2.0263     0.0877 O.2     
  10 O10           -0.6437    -2.6697     0.2246 O.3     
  11 C11           -1.0885    -4.0476     0.1153 C.3     
  12 C12            0.1234    -4.9801     0.1634 C.3     
  13 C13           -4.1622     1.8955     0.1840 C.2     
  14 C14           -5.6505     1.8649    -0.0502 C.3     
  15 O15           -3.6003     2.9528     0.3762 O.2     
  16 C16            1.8970     2.0955     1.9366 C.3     
  17 C17            2.0962     2.2283    -0.5503 C.3     
  18 C18           -6.3594     1.6129     1.2556 C.ar    
  19 C19           -6.1040     3.2080    -0.6258 C.3     
  20 C20           -5.4982     3.3969    -2.0180 C.3     
  21 C21           -7.1641     0.4983     1.4013 C.ar    
  22 C22           -7.8144     0.2672     2.5991 C.ar    
  23 C23           -7.6597     1.1504     3.6512 C.ar    
  24 C24           -6.8543     2.2644     3.5057 C.ar    
  25 C25           -6.2006     2.4932     2.3094 C.ar    
  26 H26            0.8034     3.4486     0.6663 H       
  27 H27           -3.9134    -0.1033     0.0975 H       
  28 H28           -1.7587    -4.2798     0.9430 H       
  29 H29           -1.6158    -4.1854    -0.8287 H       
  30 H30           -0.2105    -6.0145     0.0813 H       
  31 H31            0.7936    -4.7480    -0.6644 H       
  32 H32            0.6507    -4.8424     1.1074 H       
  33 H33           -5.8913     1.0681    -0.7540 H       
  34 H34            2.7507     2.7652     2.0408 H       
  35 H35            1.2247     2.2295     2.7840 H       
  36 H36            2.2461     1.0633     1.9095 H       
  37 H37            1.5658     2.4569    -1.4747 H       
  38 H38            2.9499     2.8979    -0.4462 H       
  39 H39            2.4453     1.1961    -0.5775 H       
  40 H40           -7.1915     3.2239    -0.6976 H       
  41 H41           -5.7712     4.0143     0.0278 H       
  42 H42           -4.4145     3.2951    -1.9595 H       
  43 H43           -5.8981     2.6410    -2.6939 H       
  44 H44           -5.7502     4.3890    -2.3923 H       
  45 H45           -7.2850    -0.1917     0.5793 H       
  46 H46           -8.4436    -0.6032     2.7127 H       
  47 H47           -8.1683     0.9702     4.5867 H       
  48 H48           -6.7337     2.9546     4.3276 H       
  49 H49           -5.5713     3.3636     2.1958 H       
@<TRIPOS>BOND
   1    1    2 2
   2    1    6 1
   3    1    5 1
   4    2    3 1
   5    3    4 2
   6    3    8 1
   7    4    5 1
   8    4    7 1
   9    6   16 1
  10    6   17 1
  11    6   26 1
  12    7   13 am
  13    7   27 1
  14    8    9 2
  15    8   10 1
  16   10   11 1
  17   11   12 1
  18   11   28 1
  19   11   29 1
  20   12   30 1
  21   12   31 1
  22   12   32 1
  23   13   14 1
  24   13   15 2
  25   14   18 1
  26   14   19 1
  27   14   33 1
  28   16   34 1
  29   16   35 1
  30   16   36 1
  31   17   37 1
  32   17   38 1
  33   17   39 1
  34   18   21 ar
  35   18   25 ar
  36   19   20 1
  37   19   40 1
  38   19   41 1
  39   20   42 1
  40   20   43 1
  41   20   44 1
  42   21   22 ar
  43   21   45 1
  44   22   23 ar
  45   22   46 1
  46   23   24 ar
  47   23   47 1
  48   24   25 ar
  49   24   48 1
  50   25   49 1

#	End of record

