#	Name: ASD01915898
#	Creating user name:	WinNT
#	Creation time:	15. 06. 2019 20:06

#	Modifying user name:	WinNT
#	Modification time:	15. 06. 2019 20:06

#	Program:	/corina/corina34_cracker 3.40 0067  02.08.2006

@<TRIPOS>MOLECULE
ASD01915898
  40   43    0    0    0
SMALL
NO_CHARGES


@<TRIPOS>ATOM
   1 C1            -0.0027     1.4785     0.2374 C.2     
   2 C2             0.0709     0.1235    -0.0266 C.2     
   3 C3            -1.2001    -0.6633    -0.3025 C.3     
   4 C4            -2.3565    -0.0096     0.4516 C.3     
   5 N5            -2.4003     1.4361     0.2670 N.am    
   6 C6            -1.2786     2.1927     0.2819 C.2     
   7 O7            -1.3288     3.4084     0.3296 O.2     
   8 S8             1.6185     2.0856     0.4948 S.3     
   9 C9             2.2551     0.5177     0.2435 C.2     
  10 N10            1.2977    -0.3299    -0.0067 N.2     
  11 C11           -3.6378     2.0589     0.0688 C.ar    
  12 N12            3.5944     0.1961     0.2974 N.pl3   
  13 C13            4.5860     1.2347     0.5877 C.3     
  14 C14            5.9649     0.6265     0.5889 C.ar    
  15 C15            6.7159     0.5685    -0.5751 C.ar    
  16 C16            6.5148     0.1169     1.7552 C.ar    
  17 C17            7.7820    -0.4334     1.7178 C.ar    
  18 N18            8.4658    -0.4762     0.5910 N.ar    
  19 C19            7.9766     0.0034    -0.5357 C.ar    
  20 C20           -4.5713     2.0935     1.0963 C.ar    
  21 C21           -5.7918     2.7090     0.8988 C.ar    
  22 C22           -6.0851     3.2910    -0.3230 C.ar    
  23 C23           -5.1557     3.2577    -1.3490 C.ar    
  24 C24           -3.9318     2.6482    -1.1538 C.ar    
  25 F25           -7.2799     3.8919    -0.5145 F       
  26 H26           -1.4101    -0.6549    -1.3720 H       
  27 H27           -1.0753    -1.6907     0.0394 H       
  28 H28           -3.2943    -0.4384     0.0986 H       
  29 H29           -2.2507    -0.2259     1.5147 H       
  30 H30            3.8803    -0.7178     0.1431 H       
  31 H31            4.5323     2.0117    -0.1748 H       
  32 H32            4.3803     1.6704     1.5655 H       
  33 H33            6.3207     0.9597    -1.5010 H       
  34 H34            5.9600     0.1497     2.6812 H       
  35 H35            8.2175    -0.8325     2.6219 H       
  36 H36            8.5662    -0.0494    -1.4390 H       
  37 H37           -4.3432     1.6391     2.0492 H       
  38 H38           -6.5181     2.7362     1.6976 H       
  39 H39           -5.3866     3.7119    -2.3012 H       
  40 H40           -3.2071     2.6227    -1.9541 H       
@<TRIPOS>BOND
   1    1    2 2
   2    1    8 1
   3    1    6 1
   4    2    3 1
   5    2   10 1
   6    3    4 1
   7    3   26 1
   8    3   27 1
   9    4    5 1
  10    4   28 1
  11    4   29 1
  12    5    6 am
  13    5   11 1
  14    6    7 2
  15    8    9 1
  16    9   10 2
  17    9   12 1
  18   11   20 ar
  19   11   24 ar
  20   12   13 1
  21   12   30 1
  22   13   14 1
  23   13   31 1
  24   13   32 1
  25   14   15 ar
  26   14   16 ar
  27   15   19 ar
  28   15   33 1
  29   16   17 ar
  30   16   34 1
  31   17   18 ar
  32   17   35 1
  33   18   19 ar
  34   19   36 1
  35   20   21 ar
  36   20   37 1
  37   21   22 ar
  38   21   38 1
  39   22   23 ar
  40   22   25 1
  41   23   24 ar
  42   23   39 1
  43   24   40 1

#	End of record

