#	Name: ASD01810401
#	Creating user name:	WinNT
#	Creation time:	15. 06. 2019 19:24

#	Modifying user name:	WinNT
#	Modification time:	15. 06. 2019 19:24

#	Program:	/corina/corina34_cracker 3.40 0067  02.08.2006

@<TRIPOS>MOLECULE
ASD01810401
  48   51    0    0    0
SMALL
NO_CHARGES


@<TRIPOS>ATOM
   1 C1            -0.0162     1.3445     0.0094 C.2     
   2 C2             0.0021    -0.0041     0.0020 C.2     
   3 C3             1.2450    -0.6878    -0.0121 C.2     
   4 C4             2.4773     0.1141    -0.0188 C.2     
   5 C5             2.3545     1.4894    -0.0108 C.2     
   6 N6             1.1427     2.0616     0.0022 N.pl3   
   7 C7            -1.4078    -0.5543     0.0104 C.3     
   8 C8            -2.3009     0.6321    -0.4121 C.3     
   9 C9            -1.4492     1.8426     0.0321 C.3     
  10 C10            3.8006    -0.5290    -0.0330 C.2     
  11 O11            4.8073     0.1521    -0.0383 O.2     
  12 O12            3.8965    -1.8734    -0.0402 O.3     
  13 C13            1.0602     3.5243     0.0101 C.3     
  14 C14            1.0450     4.0188     1.4336 C.ar    
  15 C15            2.2344     4.3129     2.0746 C.ar    
  16 C16            2.2237     4.7664     3.3792 C.ar    
  17 C17            1.0171     4.9273     4.0468 C.ar    
  18 C18           -0.1756     4.6317     3.4004 C.ar    
  19 C19           -0.1587     4.1831     2.0941 C.ar    
  20 N20            1.0030     5.3869     5.3710 N.pl3   
  21 N21            2.1254     5.7210     6.1398 N.2     
  22 C22            1.7127     6.1074     7.3201 C.2     
  23 C23            0.3157     6.0322     7.3419 C.2     
  24 C24           -0.0968     5.5919     6.1306 C.2     
  25 O25            1.2902    -1.9077    -0.0182 O.2     
  26 C26            5.2338    -2.4388    -0.0542 C.3     
  27 C27            5.1417    -3.9660    -0.0606 C.3     
  28 H28            3.2401     2.1075    -0.0154 H       
  29 H29           -1.4999    -1.3715    -0.7049 H       
  30 H30           -1.6763    -0.8932     1.0110 H       
  31 H31           -2.4587     0.6364    -1.4907 H       
  32 H32           -3.2524     0.6123     0.1194 H       
  33 H33           -1.7243     2.1582     1.0384 H       
  34 H34           -1.5749     2.6658    -0.6712 H       
  35 H35            1.9234     3.9397    -0.5097 H       
  36 H36            0.1464     3.8393    -0.4937 H       
  37 H37            3.1727     4.1875     1.5547 H       
  38 H38            3.1530     4.9952     3.8795 H       
  39 H39           -1.1157     4.7559     3.9172 H       
  40 H40           -1.0863     3.9566     1.5895 H       
  41 H41            2.3421     6.4284     8.1369 H       
  42 H42           -0.3212     6.2850     8.1767 H       
  43 H43           -1.1204     5.4310     5.8260 H       
  44 H44            5.7610    -2.1028    -0.9471 H       
  45 H45            5.7761    -2.1113     0.8328 H       
  46 H46            6.1456    -4.3905    -0.0711 H       
  47 H47            4.6145    -4.3020     0.8323 H       
  48 H48            4.5994    -4.2936    -0.9476 H       
@<TRIPOS>BOND
   1    1    2 2
   2    1    6 1
   3    1    9 1
   4    2    3 1
   5    2    7 1
   6    3    4 1
   7    3   25 2
   8    4    5 2
   9    4   10 1
  10    5    6 1
  11    5   28 1
  12    6   13 1
  13    7    8 1
  14    7   29 1
  15    7   30 1
  16    8    9 1
  17    8   31 1
  18    8   32 1
  19    9   33 1
  20    9   34 1
  21   10   11 2
  22   10   12 1
  23   12   26 1
  24   13   14 1
  25   13   35 1
  26   13   36 1
  27   14   15 ar
  28   14   19 ar
  29   15   16 ar
  30   15   37 1
  31   16   17 ar
  32   16   38 1
  33   17   18 ar
  34   17   20 1
  35   18   19 ar
  36   18   39 1
  37   19   40 1
  38   20   21 1
  39   20   24 1
  40   21   22 2
  41   22   23 1
  42   22   41 1
  43   23   24 2
  44   23   42 1
  45   24   43 1
  46   26   27 1
  47   26   44 1
  48   26   45 1
  49   27   46 1
  50   27   47 1
  51   27   48 1

#	End of record

