#	Name: ASD03490103
#	Creating user name:	WinNT
#	Creation time:	15. 06. 2019 20:42

#	Modifying user name:	WinNT
#	Modification time:	15. 06. 2019 20:42

#	Program:	/corina/corina34_cracker 3.40 0067  02.08.2006

@<TRIPOS>MOLECULE
ASD03490103
  46   48    0    0    0
SMALL
NO_CHARGES


@<TRIPOS>ATOM
   1 C1            -0.0609     1.4312    -0.4084 C.ar    
   2 C2            -0.0581     0.0522    -0.5051 C.ar    
   3 C3             1.1337     2.1195    -0.3083 C.ar    
   4 C4             1.1394    -0.6384    -0.5018 C.ar    
   5 C5             2.3312     1.4288    -0.3050 C.ar    
   6 C6            15.2214    -4.7493    -3.6139 C.ar    
   7 C7            14.1103    -3.9479    -3.4383 C.ar    
   8 C8             7.3565    -3.3608    -4.1697 C.2     
   9 C9            14.8235    -3.4543    -1.1963 C.ar    
  10 C10            3.6394    -0.7031    -0.3976 C.3     
  11 C11            5.3492    -1.5522    -1.8470 C.3     
  12 C12           11.6087    -2.8229    -2.6190 C.2     
  13 C13            2.3340     0.0499    -0.4022 C.ar    
  14 C14           16.1339    -4.9049    -2.5842 C.ar    
  15 C15           13.9081    -3.2977    -2.2280 C.ar    
  16 C16           15.9344    -4.2572    -1.3757 C.ar    
  17 C17            7.1187    -2.2801    -3.4244 C.2     
  18 N18            4.7767    -2.4685    -4.0446 N.3     
  19 N19            8.1747    -1.8096    -2.7870 N.2     
  20 N20           12.7821    -2.4845    -2.0488 N.am    
  21 N21           10.5034    -2.0928    -2.3705 N.am    
  22 O22           11.5473    -3.7868    -3.3576 O.2     
  23 O23            4.1104    -0.8481    -1.7389 O.3     
  24 S24            9.0635    -3.7674    -4.0136 S.3     
  25 C25            9.2933    -2.4418    -2.9586 C.2     
  26 C26            5.7550    -1.6473    -3.3191 C.3     
  27 Cl27          17.0800    -4.4540    -0.0862 Cl      
  28 F28           17.2201    -5.6893    -2.7581 F       
  29 H29           -0.9962     1.9711    -0.4155 H       
  30 H30           -0.9914    -0.4856    -0.5830 H       
  31 H31            1.1315     3.1968    -0.2330 H       
  32 H32            1.1416    -1.7158    -0.5767 H       
  33 H33            3.2645     1.9666    -0.2275 H       
  34 H34           15.3763    -5.2585    -4.5536 H       
  35 H35           13.3992    -3.8268    -4.2421 H       
  36 H36            6.6286    -3.8957    -4.7617 H       
  37 H37           14.6680    -2.9492    -0.2545 H       
  38 H38            4.3749    -0.1517     0.1881 H       
  39 H39            3.4888    -1.6886     0.0432 H       
  40 H40            6.1202    -1.0183    -1.2914 H       
  41 H41            5.2341    -2.5552    -1.4363 H       
  42 H42            4.7314    -3.4005    -3.6607 H       
  43 H43            3.8669    -2.0324    -4.0436 H       
  44 H44           12.8467    -1.6776    -1.5142 H       
  45 H45           10.5523    -1.3239    -1.7813 H       
  46 H46            5.7837    -0.6479    -3.7534 H       
@<TRIPOS>BOND
   1    1    2 ar
   2    1    3 ar
   3    1   29 1
   4    2    4 ar
   5    2   30 1
   6    3    5 ar
   7    3   31 1
   8    4   13 ar
   9    4   32 1
  10    5   13 ar
  11    5   33 1
  12    6    7 ar
  13    6   14 ar
  14    6   34 1
  15    7   15 ar
  16    7   35 1
  17    8   17 2
  18    8   24 1
  19    8   36 1
  20    9   15 ar
  21    9   16 ar
  22    9   37 1
  23   10   13 1
  24   10   23 1
  25   10   38 1
  26   10   39 1
  27   11   23 1
  28   11   26 1
  29   11   40 1
  30   11   41 1
  31   12   20 am
  32   12   21 am
  33   12   22 2
  34   14   16 ar
  35   14   28 1
  36   15   20 1
  37   16   27 1
  38   17   19 1
  39   17   26 1
  40   18   26 1
  41   18   42 1
  42   18   43 1
  43   19   25 2
  44   20   44 1
  45   21   25 1
  46   21   45 1
  47   24   25 1
  48   26   46 1

#	End of record

