#	Name: ASD07300262
#	Creating user name:	WinNT
#	Creation time:	15. 06. 2019 21:09

#	Modifying user name:	WinNT
#	Modification time:	15. 06. 2019 21:09

#	Program:	/corina/corina34_cracker 3.40 0067  02.08.2006

@<TRIPOS>MOLECULE
ASD07300262
  49   54    0    0    0
SMALL
NO_CHARGES


@<TRIPOS>ATOM
   1 C1            -0.0169     1.3941     0.0097 C.ar    
   2 C2             0.0021    -0.0041     0.0020 C.ar    
   3 C3             1.2199    -0.6674    -0.0132 C.ar    
   4 C4             2.3808     0.0923    -0.0202 C.ar    
   5 C5             2.2878     1.4713    -0.0119 C.ar    
   6 N6             1.1161     2.0768     0.0026 N.ar    
   7 C7            -2.1139     0.6622     0.0347 C.2     
   8 N8            -1.3542     1.7734     0.0301 N.am    
   9 N9            -1.3234    -0.4279     0.0124 N.am    
  10 O10           -3.3304     0.6453     0.0519 O.2     
  11 C11           -1.7801    -1.8199     0.0085 C.3     
  12 C12           -1.9250    -2.3131     1.4496 C.3     
  13 C13           -1.8317     3.0925     0.0441 C.ar    
  14 C14           -3.1985     3.3357     0.0641 C.ar    
  15 C15           -3.6686     4.6336     0.0779 C.ar    
  16 C16           -2.7742     5.6962     0.0722 C.ar    
  17 C17           -1.4069     5.4526     0.0526 C.ar    
  18 C18           -0.9373     4.1545     0.0437 C.ar    
  19 C19           -6.0937     9.0082     0.1345 C.ar    
  20 C20           -6.7387     7.7594     0.1357 C.ar    
  21 C21           -8.1361     7.7197     0.1485 C.ar    
  22 C22           -8.8229     8.9201     0.1595 C.ar    
  23 C23           -8.1167    10.1113     0.1576 C.ar    
  24 N24           -6.7986    10.1266     0.1454 N.ar    
  25 C25           -4.5830     7.3813     0.1055 C.2     
  26 N26           -4.7383     8.7338     0.1153 N.pl3   
  27 N27           -5.7735     6.8081     0.1231 N.2     
  28 N28           -3.2506     7.0123     0.0857 N.pl3   
  29 C29           -2.4152     8.2182     0.0821 C.3     
  30 C30           -3.4197     9.3825     0.1019 C.3     
  31 H31            1.2635    -1.7465    -0.0190 H       
  32 H32            3.3476    -0.3890    -0.0316 H       
  33 H33            3.1908     2.0638    -0.0173 H       
  34 H34           -2.7439    -1.8847    -0.4963 H       
  35 H35           -1.0528    -2.4395    -0.5161 H       
  36 H36           -0.9612    -2.2483     1.9545 H       
  37 H37           -2.6524    -1.6936     1.9742 H       
  38 H38           -2.2648    -3.3488     1.4467 H       
  39 H39           -3.8940     2.5095     0.0686 H       
  40 H40           -4.7319     4.8228     0.0928 H       
  41 H41           -0.7112     6.2786     0.0477 H       
  42 H42            0.1259     3.9649     0.0323 H       
  43 H43           -8.6646     6.7778     0.1495 H       
  44 H44           -9.9028     8.9284     0.1692 H       
  45 H45           -8.6567    11.0466     0.1658 H       
  46 H46           -1.7832     8.2458     0.9698 H       
  47 H47           -1.8061     8.2564    -0.8210 H       
  48 H48           -3.3074     9.9968    -0.7915 H       
  49 H49           -3.2840     9.9865     0.9990 H       
@<TRIPOS>BOND
   1    1    2 ar
   2    1    6 ar
   3    1    8 1
   4    2    3 ar
   5    2    9 1
   6    3    4 ar
   7    3   31 1
   8    4    5 ar
   9    4   32 1
  10    5    6 ar
  11    5   33 1
  12    7    8 am
  13    7    9 am
  14    7   10 2
  15    8   13 1
  16    9   11 1
  17   11   12 1
  18   11   34 1
  19   11   35 1
  20   12   36 1
  21   12   37 1
  22   12   38 1
  23   13   14 ar
  24   13   18 ar
  25   14   15 ar
  26   14   39 1
  27   15   16 ar
  28   15   40 1
  29   16   17 ar
  30   16   28 1
  31   17   18 ar
  32   17   41 1
  33   18   42 1
  34   19   20 ar
  35   19   24 ar
  36   19   26 1
  37   20   21 ar
  38   20   27 1
  39   21   22 ar
  40   21   43 1
  41   22   23 ar
  42   22   44 1
  43   23   24 ar
  44   23   45 1
  45   25   26 1
  46   25   27 2
  47   25   28 1
  48   26   30 1
  49   28   29 1
  50   29   30 1
  51   29   46 1
  52   29   47 1
  53   30   48 1
  54   30   49 1

#	End of record

