#	Name: ASD01910193
#	Creating user name:	WinNT
#	Creation time:	15. 06. 2019 19:55

#	Modifying user name:	WinNT
#	Modification time:	15. 06. 2019 19:55

#	Program:	/corina/corina34_cracker 3.40 0067  02.08.2006

@<TRIPOS>MOLECULE
ASD01910193
  39   41    0    0    0
SMALL
NO_CHARGES


@<TRIPOS>ATOM
   1 C1             0.1684     1.6656    -0.3754 C.ar    
   2 C2             0.1039     0.2874    -0.3079 C.ar    
   3 C3             1.2678    -0.4578    -0.1622 C.ar    
   4 C4             2.4955     0.1839    -0.0849 C.ar    
   5 C5             2.5568     1.5686    -0.1535 C.ar    
   6 C6             1.3895     2.3078    -0.2988 C.ar    
   7 N7             3.7922     2.2193    -0.0760 N.am    
   8 C8             4.0071     3.3444    -0.7864 C.2     
   9 C9             5.2675     4.0973    -0.6150 C.ar    
  10 N10            1.2017    -1.8529    -0.0930 N.am    
  11 C11            2.1804    -2.6018    -0.6386 C.2     
  12 C12            5.4930     5.2628    -1.3491 C.ar    
  13 C13            6.6712     5.9617    -1.1845 C.ar    
  14 C14            7.6288     5.5098    -0.2945 C.ar    
  15 C15            7.4120     4.3541     0.4374 C.ar    
  16 C16            6.2348     3.6489     0.2861 C.ar    
  17 O17            3.1615    -2.0660    -1.1153 O.2     
  18 O18            3.1643     3.7399    -1.5680 O.2     
  19 C19            2.0603    -4.0779    -0.6572 C.ar    
  20 Cl20           8.6201     3.7947     1.5515 Cl      
  21 C21            3.0641    -4.8736    -1.2182 C.ar    
  22 C22            2.9110    -6.2465    -1.2143 C.ar    
  23 N23            1.8380    -6.8064    -0.6921 N.ar    
  24 C24            0.8688    -6.0937    -0.1534 C.ar    
  25 C25            0.9426    -4.7149    -0.1091 C.ar    
  26 H26           -0.7372     2.2422    -0.4928 H       
  27 H27           -0.8520    -0.2115    -0.3681 H       
  28 H28            3.4015    -0.3929     0.0287 H       
  29 H29            1.4366     3.3854    -0.3525 H       
  30 H30            4.4946     1.8610     0.4890 H       
  31 H31            0.4513    -2.2816     0.3476 H       
  32 H32            4.7467     5.6167    -2.0450 H       
  33 H33            6.8464     6.8635    -1.7522 H       
  34 H34            8.5496     6.0602    -0.1701 H       
  35 H35            6.0662     2.7480     0.8574 H       
  36 H36            3.9455    -4.4216    -1.6484 H       
  37 H37            3.6808    -6.8695    -1.6452 H       
  38 H38            0.0072    -6.5946     0.2627 H       
  39 H39            0.1448    -4.1372     0.3338 H       
@<TRIPOS>BOND
   1    1    2 ar
   2    1    6 ar
   3    1   26 1
   4    2    3 ar
   5    2   27 1
   6    3    4 ar
   7    3   10 1
   8    4    5 ar
   9    4   28 1
  10    5    6 ar
  11    5    7 1
  12    6   29 1
  13    7    8 am
  14    7   30 1
  15    8    9 1
  16    8   18 2
  17    9   12 ar
  18    9   16 ar
  19   10   11 am
  20   10   31 1
  21   11   17 2
  22   11   19 1
  23   12   13 ar
  24   12   32 1
  25   13   14 ar
  26   13   33 1
  27   14   15 ar
  28   14   34 1
  29   15   16 ar
  30   15   20 1
  31   16   35 1
  32   19   21 ar
  33   19   25 ar
  34   21   22 ar
  35   21   36 1
  36   22   23 ar
  37   22   37 1
  38   23   24 ar
  39   24   25 ar
  40   24   38 1
  41   25   39 1

#	End of record

