#	Name: ASD03930074
#	Creating user name:	WinNT
#	Creation time:	15. 06. 2019 20:47

#	Modifying user name:	WinNT
#	Modification time:	15. 06. 2019 20:47

#	Program:	/corina/corina34_cracker 3.40 0067  02.08.2006

@<TRIPOS>MOLECULE
ASD03930074
  31   33    0    0    0
SMALL
NO_CHARGES


@<TRIPOS>ATOM
   1 C1             3.3633     4.1318    -0.9781 C.ar    
   2 C2             4.5346     4.8332    -0.9708 C.ar    
   3 C3             4.7926     5.7515     0.0388 C.ar    
   4 C4             3.8475     5.9617     1.0570 C.ar    
   5 C5             2.6532     5.2455     1.0490 C.ar    
   6 C6             2.4108     4.3295     0.0294 C.ar    
   7 O7             5.8283     6.5740     0.3113 O.3     
   8 C8             5.5408     7.2534     1.4329 C.2     
   9 N9             4.3750     6.9038     1.8859 N.2     
  10 C10            1.1473     3.5644     0.0102 C.2     
  11 O11            1.1709     2.3549    -0.1102 O.2     
  12 N12           -0.0316     4.2073     0.1262 N.am    
  13 C13           -0.0738     5.6579     0.3555 C.3     
  14 C14           -0.9624     6.3005    -0.7142 C.3     
  15 C15           -1.2990     3.4717     0.0197 C.3     
  16 C16           -2.1683     4.1396    -1.0503 C.3     
  17 C17           -2.3345     5.6228    -0.7064 C.3     
  18 H18            3.1679     3.4227    -1.7690 H       
  19 H19            5.2629     4.6732    -1.7522 H       
  20 H20            1.9207     5.3999     1.8275 H       
  21 H21            6.1872     7.9860     1.8932 H       
  22 H22           -0.4873     5.8598     1.3436 H       
  23 H23            0.9339     6.0680     0.2880 H       
  24 H24           -1.0800     7.3627    -0.4994 H       
  25 H25           -0.5007     6.1759    -1.6937 H       
  26 H26           -1.0991     2.4386    -0.2644 H       
  27 H27           -1.8169     3.4955     0.9785 H       
  28 H28           -1.6907     4.0352    -2.0244 H       
  29 H29           -3.1484     3.6632    -1.0722 H       
  30 H30           -2.7921     5.7181     0.2783 H       
  31 H31           -2.9727     6.0988    -1.4508 H       
@<TRIPOS>BOND
   1    1    2 ar
   2    1    6 ar
   3    1   18 1
   4    2    3 ar
   5    2   19 1
   6    3    4 ar
   7    3    7 1
   8    4    5 ar
   9    4    9 1
  10    5    6 ar
  11    5   20 1
  12    6   10 1
  13    7    8 1
  14    8    9 2
  15    8   21 1
  16   10   11 2
  17   10   12 am
  18   12   13 1
  19   12   15 1
  20   13   14 1
  21   13   22 1
  22   13   23 1
  23   14   17 1
  24   14   24 1
  25   14   25 1
  26   15   16 1
  27   15   26 1
  28   15   27 1
  29   16   17 1
  30   16   28 1
  31   16   29 1
  32   17   30 1
  33   17   31 1

#	End of record

