#	Name: ASD07931726
#	Creating user name:	WinNT
#	Creation time:	15. 06. 2019 21:13

#	Modifying user name:	WinNT
#	Modification time:	15. 06. 2019 21:13

#	Program:	/corina/corina34_cracker 3.40 0067  02.08.2006

@<TRIPOS>MOLECULE
ASD07931726
  60   64    0    0    0
SMALL
NO_CHARGES


@<TRIPOS>ATOM
   1 C1             1.9483    -2.1173    -1.0237 C.2     
   2 C2             0.8497    -1.3238    -1.2101 C.2     
   3 C3             1.0351     0.1254    -1.3180 C.2     
   4 N4             2.2748     0.6384    -1.2334 N.am    
   5 C5             3.3644    -0.1811    -1.0435 C.2     
   6 C6             3.2169    -1.5301    -0.9404 C.2     
   7 C7             2.4968     2.0865    -1.3437 C.3     
   8 C8             3.5649     2.4840    -0.3140 C.3     
   9 N9             4.7987     1.7425    -0.6117 N.am    
  10 C10            4.7068     0.4346    -0.9516 C.2     
  11 C11            6.1031     2.4057    -0.5420 C.3     
  12 O12            0.0750     0.8586    -1.4832 O.2     
  13 N13           -0.4271    -1.8858    -1.2967 N.pl3   
  14 C14           -1.0941    -2.5516    -0.3004 C.2     
  15 C15           -1.2447    -1.8707    -2.3821 C.2     
  16 N16           -2.3499    -2.4950    -2.0785 N.2     
  17 C17           -2.2844    -2.9228    -0.8087 C.2     
  18 C18           -3.3579    -3.6869    -0.0773 C.3     
  19 O19            5.7065    -0.2200    -1.1760 O.2     
  20 C20            6.3897     2.8167     0.9036 C.3     
  21 C21            6.2700     1.5966     1.8434 C.3     
  22 C22            5.6347     2.1734     3.1283 C.3     
  23 C23            5.4458     3.6737     2.8128 C.3     
  24 O24            5.3852     3.7429     1.3715 O.3     
  25 C25            4.1609     4.1791     3.4167 C.ar    
  26 C26            3.0137     4.2423     2.6481 C.ar    
  27 C27            4.1278     4.5744     4.7419 C.ar    
  28 C28            2.9477     5.0383     5.2957 C.ar    
  29 C29            1.8028     5.1064     4.5248 C.ar    
  30 C30            1.8352     4.7063     3.2017 C.ar    
  31 C31            6.0912     3.6493    -1.4331 C.3     
  32 Cl32           5.5663     4.4879     5.7100 Cl      
  33 C33            0.5175     5.6117     5.1278 C.3     
  34 F34            0.4346     6.9975     4.9554 F       
  35 F35           -0.5680     4.9973     4.4942 F       
  36 F36            0.4925     5.3092     6.4934 F       
  37 H37            1.8377    -3.1881    -0.9370 H       
  38 H38            4.0863    -2.1535    -0.7926 H       
  39 H39            2.8442     2.3304    -2.3476 H       
  40 H40            1.5684     2.6183    -1.1353 H       
  41 H41            3.7565     3.5550    -0.3799 H       
  42 H42            3.2190     2.2319     0.6884 H       
  43 H43            6.8780     1.7202    -0.8853 H       
  44 H44           -0.7338    -2.7417     0.6998 H       
  45 H45           -1.0181    -1.4178    -3.3360 H       
  46 H46           -3.2045    -4.7564    -0.2208 H       
  47 H47           -3.3103    -3.4525     0.9861 H       
  48 H48           -4.3354    -3.4043    -0.4682 H       
  49 H49            7.3826     3.2598     0.9816 H       
  50 H50            5.6219     0.8382     1.4041 H       
  51 H51            7.2548     1.1813     2.0575 H       
  52 H52            4.6726     1.7002     3.3243 H       
  53 H53            6.3055     2.0432     3.9776 H       
  54 H54            6.2932     4.2494     3.1851 H       
  55 H55            3.0383     3.9295     1.6146 H       
  56 H56            2.9212     5.3467     6.3304 H       
  57 H57            0.9403     4.7600     2.5994 H       
  58 H58            7.0618     4.1427    -1.3813 H       
  59 H59            5.8870     3.3565    -2.4630 H       
  60 H60            5.3164     4.3348    -1.0899 H       
@<TRIPOS>BOND
   1    1    2 2
   2    1    6 1
   3    1   37 1
   4    2    3 1
   5    2   13 1
   6    3    4 am
   7    3   12 2
   8    4    5 1
   9    4    7 1
  10    5    6 2
  11    5   10 1
  12    6   38 1
  13    7    8 1
  14    7   39 1
  15    7   40 1
  16    8    9 1
  17    8   41 1
  18    8   42 1
  19    9   10 am
  20    9   11 1
  21   10   19 2
  22   11   31 1
  23   11   20 1
  24   11   43 1
  25   13   14 1
  26   13   15 1
  27   14   17 2
  28   14   44 1
  29   15   16 2
  30   15   45 1
  31   16   17 1
  32   17   18 1
  33   18   46 1
  34   18   47 1
  35   18   48 1
  36   20   21 1
  37   20   24 1
  38   20   49 1
  39   21   22 1
  40   21   50 1
  41   21   51 1
  42   22   23 1
  43   22   52 1
  44   22   53 1
  45   23   24 1
  46   23   25 1
  47   23   54 1
  48   25   26 ar
  49   25   27 ar
  50   26   30 ar
  51   26   55 1
  52   27   28 ar
  53   27   32 1
  54   28   29 ar
  55   28   56 1
  56   29   30 ar
  57   29   33 1
  58   30   57 1
  59   31   58 1
  60   31   59 1
  61   31   60 1
  62   33   34 1
  63   33   35 1
  64   33   36 1

#	End of record

