#	Name: ASD04590478
#	Creating user name:	WinNT
#	Creation time:	15. 06. 2019 20:50

#	Modifying user name:	WinNT
#	Modification time:	15. 06. 2019 20:50

#	Program:	/corina/corina34_cracker 3.40 0067  02.08.2006

@<TRIPOS>MOLECULE
ASD04590478
  60   65    0    0    0
SMALL
NO_CHARGES


@<TRIPOS>ATOM
   1 C1            -0.0642     1.3060     0.3586 C.ar    
   2 C2            -0.0112    -0.0710     0.5192 C.ar    
   3 C3             2.3572    -0.0315     0.1318 C.ar    
   4 C4             2.2975     1.3641    -0.0300 C.ar    
   5 C5             1.0821     2.0228     0.0854 C.ar    
   6 N6             3.6517    -0.3990    -0.0328 N.2     
   7 C7             4.3823     0.6609    -0.2815 C.2     
   8 N8             3.5903     1.7777    -0.2904 N.pl3   
   9 C9             5.8408     0.6515    -0.5172 C.2     
  10 C10            6.6760    -0.4893    -0.5134 C.2     
  11 C11            7.9410    -0.0764    -0.7698 C.2     
  12 N12            7.9144     1.2729    -0.9307 N.pl3   
  13 N13            6.5914     1.7050    -0.7738 N.2     
  14 N14            6.2675    -1.8143    -0.2842 N.am    
  15 C15            7.1727    -2.8126    -0.3093 C.2     
  16 O16            8.3429    -2.5667    -0.5303 O.2     
  17 C17            1.1852    -0.7423     0.4085 C.ar    
  18 N18            6.7809    -4.0832    -0.0896 N.am    
  19 C19            7.7010    -5.1298    -0.2112 C.ar    
  20 C20           -1.2736    -0.8379     0.8179 C.3     
  21 N21           -1.9036    -1.2538    -0.4423 N.3     
  22 C22           -3.0011    -2.2004    -0.1953 C.3     
  23 C23           -0.9126    -1.8334    -1.3605 C.3     
  24 C24           -1.5988    -2.1973    -2.6799 C.3     
  25 O25           -2.6820    -3.0932    -2.4167 O.3     
  26 C26           -3.6663    -2.5605    -1.5263 C.3     
  27 C27            9.0284    -4.9347     0.1870 C.ar    
  28 C28            9.9441    -5.9338     0.0797 C.ar    
  29 C29            9.5603    -7.1834    -0.4369 C.ar    
  30 C30            8.2175    -7.3900    -0.8422 C.ar    
  31 C31            7.2899    -6.3435    -0.7163 C.ar    
  32 C32           10.4854    -8.2343    -0.5598 C.ar    
  33 C33           10.0818    -9.4321    -1.0644 C.ar    
  34 C34            8.7617    -9.6352    -1.4628 C.ar    
  35 C35            7.8379    -8.6413    -1.3587 C.ar    
  36 H36           -1.0103     1.8197     0.4436 H       
  37 H37            1.0334     3.0946    -0.0388 H       
  38 H38            3.8820     2.6889    -0.4501 H       
  39 H39            8.8150    -0.7075    -0.8348 H       
  40 H40            8.6785     1.8382    -1.1243 H       
  41 H41            5.3340    -2.0105    -0.1080 H       
  42 H42            1.2188    -1.8143     0.5352 H       
  43 H43            5.8608    -4.2720     0.1529 H       
  44 H44           -1.0314    -1.7195     1.4114 H       
  45 H45           -1.9615    -0.2022     1.3755 H       
  46 H46           -2.6053    -3.1032     0.2698 H       
  47 H47           -3.7357    -1.7413     0.4663 H       
  48 H48           -0.1226    -1.1065    -1.5495 H       
  49 H49           -0.4834    -2.7304    -0.9140 H       
  50 H50           -1.9812    -1.2927    -3.1528 H       
  51 H51           -0.8804    -2.6796    -3.3428 H       
  52 H52           -4.4433    -3.3055    -1.3550 H       
  53 H53           -4.1089    -1.6666    -1.9657 H       
  54 H54            9.3297    -3.9769     0.5848 H       
  55 H55           10.9649    -5.7676     0.3906 H       
  56 H56            6.2636    -6.4866    -1.0207 H       
  57 H57           11.5118    -8.0918    -0.2556 H       
  58 H58           10.7953   -10.2374    -1.1578 H       
  59 H59            8.4675   -10.5955    -1.8599 H       
  60 H60            6.8184    -8.8131    -1.6707 H       
@<TRIPOS>BOND
   1    1    2 ar
   2    1    5 ar
   3    1   36 1
   4    2   17 ar
   5    2   20 1
   6    3    4 ar
   7    3    6 1
   8    3   17 ar
   9    4    5 ar
  10    4    8 1
  11    5   37 1
  12    6    7 2
  13    7    8 1
  14    7    9 1
  15    8   38 1
  16    9   10 1
  17    9   13 2
  18   10   11 2
  19   10   14 1
  20   11   12 1
  21   11   39 1
  22   12   13 1
  23   12   40 1
  24   14   15 am
  25   14   41 1
  26   15   16 2
  27   15   18 am
  28   17   42 1
  29   18   19 1
  30   18   43 1
  31   19   27 ar
  32   19   31 ar
  33   20   21 1
  34   20   44 1
  35   20   45 1
  36   21   22 1
  37   21   23 1
  38   22   26 1
  39   22   46 1
  40   22   47 1
  41   23   24 1
  42   23   48 1
  43   23   49 1
  44   24   25 1
  45   24   50 1
  46   24   51 1
  47   25   26 1
  48   26   52 1
  49   26   53 1
  50   27   28 ar
  51   27   54 1
  52   28   29 ar
  53   28   55 1
  54   29   30 ar
  55   29   32 ar
  56   30   31 ar
  57   30   35 ar
  58   31   56 1
  59   32   33 ar
  60   32   57 1
  61   33   34 ar
  62   33   58 1
  63   34   35 ar
  64   34   59 1
  65   35   60 1

#	End of record

