#	Name: ASD00110041
#	Creating user name:	WinNT
#	Creation time:	15. 06. 2019 18:30

#	Modifying user name:	WinNT
#	Modification time:	15. 06. 2019 18:30

#	Program:	/corina/corina34_cracker 3.40 0067  02.08.2006

@<TRIPOS>MOLECULE
ASD00110041
  52   54    0    0    0
SMALL
NO_CHARGES


@<TRIPOS>ATOM
   1 C1            -0.0187     1.5270     0.0104 C.3     
   2 C2            -1.4335    -0.5293     0.0744 C.3     
   3 C3            -1.4169    -2.0361     0.0863 C.2     
   4 N4            -1.2604    -2.7174    -1.0660 N.am    
   5 O5            -1.5445    -2.6357     1.1328 O.2     
   6 C6            -1.2442    -4.1823    -1.0544 C.3     
   7 C7            -2.6798    -4.7086    -1.1092 C.3     
   8 O8            -3.2724    -4.3469    -2.3582 O.3     
   9 C9            -0.4670    -4.6934    -2.2691 C.3     
  10 O10           -1.0976    -4.2334    -3.4661 O.3     
  11 C11            1.3946     2.0499    -0.0002 C.ar    
  12 N12           -2.0748    -0.0373     1.3005 N.3     
  13 C13           -2.1488     1.4293     1.3093 C.3     
  14 C14           -0.7345     2.0129     1.2737 C.3     
  15 C15            0.0021    -0.0041     0.0020 C.3     
  16 C16            0.9470    -4.1750    -2.2152 C.ar    
  17 C17            3.5412    -3.2242    -2.1167 C.ar    
  18 C18            2.5221    -2.4067    -2.5683 C.ar    
  19 C19            1.2251    -2.8822    -2.6178 C.ar    
  20 C20            1.9651    -4.9905    -1.7577 C.ar    
  21 C21            3.2622    -4.5150    -1.7082 C.ar    
  22 C22            2.2621     1.7181     1.0237 C.ar    
  23 C23            3.5585     2.1978     1.0139 C.ar    
  24 C24            3.9876     3.0088    -0.0201 C.ar    
  25 C25            3.1205     3.3398    -1.0444 C.ar    
  26 C26            1.8253     2.8566    -1.0369 C.ar    
  27 H27           -0.5477     1.8889    -0.8712 H       
  28 H28           -1.9924    -0.1790    -0.7934 H       
  29 H29           -1.1584    -2.2379    -1.9029 H       
  30 H30           -0.7632    -4.5332    -0.1414 H       
  31 H31           -2.6728    -5.7941    -1.0112 H       
  32 H32           -3.2576    -4.2738    -0.2935 H       
  33 H33           -4.1852    -4.6487    -2.4626 H       
  34 H34           -0.4550    -5.7833    -2.2605 H       
  35 H35           -1.1436    -3.2704    -3.5414 H       
  36 H36           -2.9896    -0.4462     1.4192 H       
  37 H37           -2.7044     1.7701     0.4357 H       
  38 H38           -2.6563     1.7619     2.2148 H       
  39 H39           -0.1827     1.6836     2.1542 H       
  40 H40           -0.7902     3.1015     1.2645 H       
  41 H41            0.4727    -0.3566    -0.9158 H       
  42 H42            0.5655    -0.3651     0.8624 H       
  43 H43            4.5546    -2.8527    -2.0780 H       
  44 H44            2.7401    -1.3982    -2.8875 H       
  45 H45            0.4290    -2.2437    -2.9715 H       
  46 H46            1.7472    -5.9990    -1.4385 H       
  47 H47            4.0584    -5.1537    -1.3553 H       
  48 H48            1.9268     1.0845     1.8314 H       
  49 H49            4.2360     1.9391     1.8142 H       
  50 H50            5.0003     3.3841    -0.0274 H       
  51 H51            3.4556     3.9737    -1.8521 H       
  52 H52            1.1489     3.1121    -1.8391 H       
@<TRIPOS>BOND
   1    1   15 1
   2    1   11 1
   3    1   14 1
   4    1   27 1
   5    2    3 1
   6    2   12 1
   7    2   15 1
   8    2   28 1
   9    3    4 am
  10    3    5 2
  11    4    6 1
  12    4   29 1
  13    6    7 1
  14    6    9 1
  15    6   30 1
  16    7    8 1
  17    7   31 1
  18    7   32 1
  19    8   33 1
  20    9   10 1
  21    9   16 1
  22    9   34 1
  23   10   35 1
  24   11   26 ar
  25   11   22 ar
  26   12   13 1
  27   12   36 1
  28   13   14 1
  29   13   37 1
  30   13   38 1
  31   14   39 1
  32   14   40 1
  33   15   41 1
  34   15   42 1
  35   16   20 ar
  36   16   19 ar
  37   17   18 ar
  38   17   21 ar
  39   17   43 1
  40   18   19 ar
  41   18   44 1
  42   19   45 1
  43   20   21 ar
  44   20   46 1
  45   21   47 1
  46   22   23 ar
  47   22   48 1
  48   23   24 ar
  49   23   49 1
  50   24   25 ar
  51   24   50 1
  52   25   26 ar
  53   25   51 1
  54   26   52 1

#	End of record

