#	Name: ASD01901278
#	Creating user name:	WinNT
#	Creation time:	15. 06. 2019 19:53

#	Modifying user name:	WinNT
#	Modification time:	15. 06. 2019 19:53

#	Program:	/corina/corina34_cracker 3.40 0067  02.08.2006

@<TRIPOS>MOLECULE
ASD01901278
  48   51    0    0    0
SMALL
NO_CHARGES


@<TRIPOS>ATOM
   1 C1            -0.0158     1.3123     0.0093 C.ar    
   2 N2             0.0021    -0.0041     0.0020 N.ar    
   3 C3             1.1316    -0.6859    -0.0125 C.ar    
   4 C4             2.3557    -0.0416    -0.0207 C.ar    
   5 C5             2.3936     1.3414    -0.0137 C.ar    
   6 C6             1.1782     2.0387     0.0018 C.ar    
   7 C7             1.1598     3.4705     0.0092 C.1     
   8 C8             1.1447     4.6444     0.0153 C.1     
   9 C9             1.1264     6.0763     0.0227 C.ar    
  10 C10           -0.1060     8.1410     0.0511 C.ar    
  11 C11           -0.0920     6.7612     0.0435 C.ar    
  12 C12            2.3269     6.7924     0.0151 C.ar    
  13 C13            2.3055     8.1721     0.0228 C.ar    
  14 C14            1.0908     8.8505     0.0386 C.ar    
  15 N15            1.0729    10.2521     0.0464 N.am    
  16 N16            1.0247    12.2545    -1.2005 N.am    
  17 C17            1.0430    10.9117    -1.1215 C.2     
  18 C18            1.0805    10.9033     1.2290 C.2     
  19 C19            0.9923    12.9058    -2.5124 C.3     
  20 O20            1.1030    10.2878     2.2774 O.2     
  21 O21            1.0325    10.2680    -2.1530 O.2     
  22 C22            2.2322    12.5022    -3.3128 C.3     
  23 C23           -0.2657    12.4708    -3.2668 C.3     
  24 F24           -1.2831     8.8037     0.0707 F       
  25 N25            1.0405    14.4749     1.5899 N.pl3   
  26 C26            1.0250    14.3541     0.2358 C.2     
  27 C27            1.0614    12.3759     1.2206 C.2     
  28 N28            1.0625    13.3116     2.1412 N.2     
  29 C29            1.0358    13.0309    -0.0417 C.2     
  30 C30            1.0357    15.7465     2.3175 C.3     
  31 F31            3.4653     8.8649     0.0155 F       
  32 H32           -0.9608     1.8351     0.0166 H       
  33 H33            1.1000    -1.7654    -0.0176 H       
  34 H34            3.2725    -0.6123    -0.0322 H       
  35 H35            3.3354     1.8699    -0.0199 H       
  36 H36           -1.0214     6.2111     0.0532 H       
  37 H37            3.2701     6.2663     0.0036 H       
  38 H38            0.9811    13.9878    -2.3807 H       
  39 H39            2.2081    12.9868    -4.2889 H       
  40 H40            3.1284    12.8121    -2.7754 H       
  41 H41            2.2434    11.4203    -3.4445 H       
  42 H42           -1.1490    12.7583    -2.6965 H       
  43 H43           -0.2897    12.9554    -4.2429 H       
  44 H44           -0.2545    11.3889    -3.3985 H       
  45 H45            1.0052    15.1613    -0.4815 H       
  46 H46            0.0070    16.0507     2.5107 H       
  47 H47            1.5626    15.6256     3.2639 H       
  48 H48            1.5339    16.5093     1.7191 H       
@<TRIPOS>BOND
   1    1    2 ar
   2    1    6 ar
   3    1   32 1
   4    2    3 ar
   5    3    4 ar
   6    3   33 1
   7    4    5 ar
   8    4   34 1
   9    5    6 ar
  10    5   35 1
  11    6    7 1
  12    7    8 3
  13    8    9 1
  14    9   12 ar
  15    9   11 ar
  16   10   11 ar
  17   10   14 ar
  18   10   24 1
  19   11   36 1
  20   12   13 ar
  21   12   37 1
  22   13   14 ar
  23   13   31 1
  24   14   15 1
  25   15   18 am
  26   15   17 am
  27   16   17 am
  28   16   29 1
  29   16   19 1
  30   17   21 2
  31   18   27 1
  32   18   20 2
  33   19   22 1
  34   19   23 1
  35   19   38 1
  36   22   39 1
  37   22   40 1
  38   22   41 1
  39   23   42 1
  40   23   43 1
  41   23   44 1
  42   25   26 1
  43   25   28 1
  44   25   30 1
  45   26   29 2
  46   26   45 1
  47   27   28 2
  48   27   29 1
  49   30   46 1
  50   30   47 1
  51   30   48 1

#	End of record

