#	Name: ASD04910437
#	Creating user name:	WinNT
#	Creation time:	15. 06. 2019 20:55

#	Modifying user name:	WinNT
#	Modification time:	15. 06. 2019 20:55

#	Program:	/corina/corina34_cracker 3.40 0067  02.08.2006

@<TRIPOS>MOLECULE
ASD04910437
  50   52    0    0    0
SMALL
NO_CHARGES


@<TRIPOS>ATOM
   1 C1            -0.0171     1.4105     0.0098 C.2     
   2 C2             0.0021    -0.0041     0.0020 C.2     
   3 C3             1.1783    -0.6620    -0.0127 C.2     
   4 O4             1.0283     2.0332     0.0032 O.2     
   5 O5            -1.1948     2.0693     0.0190 O.3     
   6 C6             2.3731    -2.6917    -0.0351 C.2     
   7 C7             2.3931    -4.1692    -0.0432 C.ar    
   8 C8             3.6097    -4.8539    -0.0585 C.ar    
   9 C9             3.6213    -6.2333    -0.0655 C.ar    
  10 C10            2.4307    -6.9383    -0.0575 C.ar    
  11 C11            1.2214    -6.2660    -0.0427 C.ar    
  12 C12            1.1955    -4.8868    -0.0298 C.ar    
  13 O13            3.4172    -2.0698    -0.0417 O.2     
  14 N14            1.1969    -2.0337    -0.0203 N.am    
  15 C15            2.4511    -8.4451    -0.0652 C.3     
  16 C16            2.2214    -8.9656     1.3551 C.3     
  17 N17            1.3912    -8.9433    -0.9453 N.pl3   
  18 C18            2.6224   -10.9965    -1.2896 C.ar    
  19 C19            1.5070   -10.2069    -1.5335 C.ar    
  20 C20            0.5040   -10.6898    -2.3716 C.ar    
  21 C21            0.6611   -11.9457    -2.9311 C.ar    
  22 C22            1.8049   -12.6782    -2.6409 C.ar    
  23 N23            2.7376   -12.1888    -1.8406 N.ar    
  24 C24            1.1567   -14.5462    -4.1100 C.2     
  25 N25            1.6406   -15.7249    -4.3923 N.2     
  26 C26            2.7646   -15.9245    -3.6881 C.2     
  27 C27            2.9911   -14.8295    -2.9380 C.2     
  28 N28            1.9726   -13.9499    -3.2018 N.pl3   
  29 C29            3.6252   -17.1610    -3.7290 C.3     
  30 F30            3.1373   -18.0366    -4.7049 F       
  31 F31            4.9414   -16.8030    -4.0397 F       
  32 F32            3.5956   -17.7912    -2.4803 F       
  33 F33            0.9802    -8.5184     1.8206 F       
  34 F34            2.2404   -10.3644     1.3479 F       
  35 F35            3.2336    -8.4898     2.1955 F       
  36 H36           -0.9258    -0.5567     0.0079 H       
  37 H37            2.1061    -0.1093    -0.0186 H       
  38 H38           -1.1067     3.0323     0.0238 H       
  39 H39            4.5397    -4.3048    -0.0651 H       
  40 H40            4.5617    -6.7642    -0.0777 H       
  41 H41            0.2957    -6.8223    -0.0369 H       
  42 H42            0.2510    -4.3633    -0.0138 H       
  43 H43            0.3635    -2.5301    -0.0150 H       
  44 H44            3.4182    -8.7935    -0.4279 H       
  45 H45            0.6090    -8.3969    -1.1200 H       
  46 H46            3.4067   -10.6282    -0.6448 H       
  47 H47           -0.3753   -10.0981    -2.5794 H       
  48 H48           -0.0966   -12.3515    -3.5850 H       
  49 H49            0.2605   -14.1152    -4.5312 H       
  50 H50            3.8164   -14.6738    -2.2591 H       
@<TRIPOS>BOND
   1    1    2 1
   2    1    4 2
   3    1    5 1
   4    2    3 2
   5    2   36 1
   6    3   14 1
   7    3   37 1
   8    5   38 1
   9    6    7 1
  10    6   13 2
  11    6   14 am
  12    7    8 ar
  13    7   12 ar
  14    8    9 ar
  15    8   39 1
  16    9   10 ar
  17    9   40 1
  18   10   11 ar
  19   10   15 1
  20   11   12 ar
  21   11   41 1
  22   12   42 1
  23   14   43 1
  24   15   16 1
  25   15   17 1
  26   15   44 1
  27   16   33 1
  28   16   34 1
  29   16   35 1
  30   17   19 1
  31   17   45 1
  32   18   19 ar
  33   18   23 ar
  34   18   46 1
  35   19   20 ar
  36   20   21 ar
  37   20   47 1
  38   21   22 ar
  39   21   48 1
  40   22   23 ar
  41   22   28 1
  42   24   25 2
  43   24   28 1
  44   24   49 1
  45   25   26 1
  46   26   27 2
  47   26   29 1
  48   27   28 1
  49   27   50 1
  50   29   30 1
  51   29   31 1
  52   29   32 1

#	End of record

