#	Name: ASD00431176
#	Creating user name:	WinNT
#	Creation time:	15. 06. 2019 18:35

#	Modifying user name:	WinNT
#	Modification time:	15. 06. 2019 18:35

#	Program:	/corina/corina34_cracker 3.40 0067  02.08.2006

@<TRIPOS>MOLECULE
ASD00431176
  48   50    0    0    0
SMALL
NO_CHARGES


@<TRIPOS>ATOM
   1 C1            -0.0728     2.1598     0.0748 C.3     
   2 S2            -0.0835     0.3459     0.0965 S.o2    
   3 O3             0.7505    -0.1452     1.1369 O.2     
   4 O4            -1.4048    -0.1471    -0.0778 O.2     
   5 N5             0.7014    -0.0885    -1.2955 N.am    
   6 C6             2.1190     0.2376    -1.4694 C.3     
   7 C7             2.9732    -0.9595    -1.0470 C.3     
   8 O8             1.9457    -0.1258    -3.9768 O.3     
   9 N9             2.3367     0.3933    -5.0008 N.2     
  10 C10            3.0590     1.4509    -4.7208 C.2     
  11 N11            3.0942     1.5629    -3.3717 N.2     
  12 C12            2.3865     0.5597    -2.9170 C.2     
  13 S13            4.6815     3.7686    -5.3044 S.3     
  14 C14            4.9371     4.0635    -6.9687 C.2     
  15 N15            4.3356     3.1625    -7.6833 N.2     
  16 C16            3.6706     2.2308    -7.0369 C.2     
  17 C17            3.7115     2.3501    -5.6931 C.2     
  18 O18            5.6636     5.0905    -7.4700 O.3     
  19 C19            5.8624     5.1354    -8.8142 C.ar    
  20 C20            4.7876     5.3354    -9.6682 C.ar    
  21 C21            4.9897     5.3810   -11.0337 C.ar    
  22 C22            6.2672     5.2263   -11.5513 C.ar    
  23 C23            7.3419     5.0258   -10.6976 C.ar    
  24 C24            7.1410     4.9868    -9.3317 C.ar    
  25 O25            6.4660     5.2707   -12.8957 O.3     
  26 C26            5.3021     5.3424   -13.7216 C.3     
  27 C27            4.9907     6.8066   -14.0380 C.3     
  28 C28            5.5538     4.5814   -15.0248 C.3     
  29 H29            0.9569     2.5169     0.0599 H       
  30 H30           -0.5938     2.5156    -0.8140 H       
  31 H31           -0.5752     2.5367     0.9657 H       
  32 H32            0.2225    -0.5589    -1.9957 H       
  33 H33            2.3718     1.1000    -0.8526 H       
  34 H34            2.7204    -1.8219    -1.6639 H       
  35 H35            4.0280    -0.7169    -1.1764 H       
  36 H36            2.7798    -1.1925     0.0001 H       
  37 H37            3.1363     1.4376    -7.5386 H       
  38 H38            3.7927     5.4552    -9.2652 H       
  39 H39            4.1529     5.5367   -11.6985 H       
  40 H40            8.3365     4.9047   -11.1007 H       
  41 H41            7.9785     4.8355    -8.6667 H       
  42 H42            4.4568     4.8962   -13.1977 H       
  43 H43            5.8360     7.2528   -14.5619 H       
  44 H44            4.1028     6.8613   -14.6680 H       
  45 H45            4.8113     7.3488   -13.1096 H       
  46 H46            5.7756     3.5383   -14.7994 H       
  47 H47            4.6660     4.6360   -15.6548 H       
  48 H48            6.3991     5.0276   -15.5487 H       
@<TRIPOS>BOND
   1    1    2 1
   2    1   29 1
   3    1   30 1
   4    1   31 1
   5    2    3 2
   6    2    4 2
   7    2    5 am
   8    5    6 1
   9    5   32 1
  10    6    7 1
  11    6   12 1
  12    6   33 1
  13    7   34 1
  14    7   35 1
  15    7   36 1
  16    8    9 1
  17    8   12 1
  18    9   10 2
  19   10   11 1
  20   10   17 1
  21   11   12 2
  22   13   14 1
  23   13   17 1
  24   14   15 2
  25   14   18 1
  26   15   16 1
  27   16   17 2
  28   16   37 1
  29   18   19 1
  30   19   20 ar
  31   19   24 ar
  32   20   21 ar
  33   20   38 1
  34   21   22 ar
  35   21   39 1
  36   22   23 ar
  37   22   25 1
  38   23   24 ar
  39   23   40 1
  40   24   41 1
  41   25   26 1
  42   26   27 1
  43   26   28 1
  44   26   42 1
  45   27   43 1
  46   27   44 1
  47   27   45 1
  48   28   46 1
  49   28   47 1
  50   28   48 1

#	End of record

