#	Name: ASD03330859
#	Creating user name:	WinNT
#	Creation time:	15. 06. 2019 20:38

#	Modifying user name:	WinNT
#	Modification time:	15. 06. 2019 20:38

#	Program:	/corina/corina34_cracker 3.40 0067  02.08.2006

@<TRIPOS>MOLECULE
ASD03330859
  64   66    0    0    0
SMALL
NO_CHARGES


@<TRIPOS>ATOM
   1 N1             0.1401     0.9678    -0.0455 N.pl3   
   2 C2             0.0205    -0.3684     0.1799 C.2     
   3 C3             1.1412    -1.2963     0.5699 C.3     
   4 N4             1.9138    -0.6864     1.6634 N.3     
   5 C5             2.9909     0.1587     1.1445 C.3     
   6 C6             2.5753     0.8338    -0.1594 C.3     
   7 C7             1.3731     1.7484     0.0906 C.3     
   8 C8            -1.0914     1.4335    -0.4047 C.2     
   9 N9            -1.9401     0.4320    -0.3847 N.2     
  10 C10           -1.2853    -0.6943    -0.0247 C.2     
  11 C11           -1.8785    -2.0353     0.1196 C.2     
  12 O12           -1.1822    -2.9760     0.4505 O.2     
  13 N13           -3.1929    -2.2195    -0.1149 N.am    
  14 C14            2.4414    -1.7133     2.5717 C.3     
  15 C15           -5.0166    -3.6514    -0.8311 C.2     
  16 C16           -3.7827    -3.5528     0.0286 C.3     
  17 C17           -4.1608    -3.7884     1.4923 C.3     
  18 C18           -5.2258    -2.7739     1.9136 C.3     
  19 O19           -5.6496    -2.6525    -1.1002 O.2     
  20 N20           -5.4166    -4.8497    -1.3008 N.am    
  21 C21           -6.6736    -4.9623    -2.0448 C.3     
  22 C22           -4.7140    -5.2057     1.6544 C.3     
  23 C23           -2.9206    -3.6213     2.3726 C.3     
  24 C24           -1.4156     2.8317    -0.7574 C.ar    
  25 C25           -2.1907     3.1094    -1.8899 C.ar    
  26 C26           -2.4907     4.4220    -2.2137 C.ar    
  27 C27           -2.0252     5.4562    -1.4202 C.ar    
  28 C28           -1.2564     5.1848    -0.2966 C.ar    
  29 C29           -0.9552     3.8801     0.0401 C.ar    
  30 O30           -2.6467     2.0944    -2.6689 O.3     
  31 C31           -3.4314     2.4529    -3.8080 C.3     
  32 F32           -0.8059     6.2001     0.4725 F       
  33 F33           -2.3198     6.7351    -1.7408 F       
  34 H34            0.7271    -2.2479     0.9031 H       
  35 H35            1.7926    -1.4618    -0.2883 H       
  36 H36            3.2331     0.9235     1.8824 H       
  37 H37            3.8730    -0.4558     0.9643 H       
  38 H38            3.4070     1.4252    -0.5424 H       
  39 H39            2.3056     0.0728    -0.8916 H       
  40 H40            1.3738     2.5587    -0.6385 H       
  41 H41            1.4331     2.1623     1.0972 H       
  42 H42           -3.7483    -1.4693    -0.3788 H       
  43 H43            3.0367    -2.4289     2.0045 H       
  44 H44            3.0661    -1.2413     3.3300 H       
  45 H45            1.6130    -2.2316     3.0545 H       
  46 H46           -3.0599    -4.3057    -0.2857 H       
  47 H47           -6.1093    -2.8930     1.2864 H       
  48 H48           -5.4951    -2.9418     2.9564 H       
  49 H49           -4.8317    -1.7643     1.7981 H       
  50 H50           -4.8723    -5.6375    -1.1462 H       
  51 H51           -7.5003    -4.6379    -1.4128 H       
  52 H52           -6.6273    -4.3331    -2.9337 H       
  53 H53           -6.8285    -5.9996    -2.3416 H       
  54 H54           -3.9343    -5.9294     1.4171 H       
  55 H55           -5.0442    -5.3514     2.6829 H       
  56 H56           -5.5577    -5.3459     0.9786 H       
  57 H57           -2.5265    -2.6116     2.2571 H       
  58 H58           -3.1900    -3.7891     3.4154 H       
  59 H59           -2.1619    -4.3440     2.0724 H       
  60 H60           -3.0884     4.6390    -3.0867 H       
  61 H61           -0.3604     3.6715     0.9171 H       
  62 H62           -3.7306     1.5508    -4.3417 H       
  63 H63           -4.3199     2.9935    -3.4816 H       
  64 H64           -2.8424     3.0880    -4.4697 H       
@<TRIPOS>BOND
   1    1    2 1
   2    1    7 1
   3    1    8 1
   4    2    3 1
   5    2   10 2
   6    3    4 1
   7    3   34 1
   8    3   35 1
   9    4    5 1
  10    4   14 1
  11    5    6 1
  12    5   36 1
  13    5   37 1
  14    6    7 1
  15    6   38 1
  16    6   39 1
  17    7   40 1
  18    7   41 1
  19    8    9 2
  20    8   24 1
  21    9   10 1
  22   10   11 1
  23   11   12 2
  24   11   13 am
  25   13   16 1
  26   13   42 1
  27   14   43 1
  28   14   44 1
  29   14   45 1
  30   15   19 2
  31   15   20 am
  32   15   16 1
  33   16   17 1
  34   16   46 1
  35   17   18 1
  36   17   22 1
  37   17   23 1
  38   18   47 1
  39   18   48 1
  40   18   49 1
  41   20   21 1
  42   20   50 1
  43   21   51 1
  44   21   52 1
  45   21   53 1
  46   22   54 1
  47   22   55 1
  48   22   56 1
  49   23   57 1
  50   23   58 1
  51   23   59 1
  52   24   25 ar
  53   24   29 ar
  54   25   26 ar
  55   25   30 1
  56   26   27 ar
  57   26   60 1
  58   27   28 ar
  59   27   33 1
  60   28   29 ar
  61   28   32 1
  62   29   61 1
  63   30   31 1
  64   31   62 1
  65   31   63 1
  66   31   64 1

#	End of record

