#	Name: ASD03081146
#	Creating user name:	WinNT
#	Creation time:	15. 06. 2019 20:27

#	Modifying user name:	WinNT
#	Modification time:	15. 06. 2019 20:27

#	Program:	/corina/corina34_cracker 3.40 0067  02.08.2006

@<TRIPOS>MOLECULE
ASD03081146
  30   33    0    0    0
SMALL
NO_CHARGES


@<TRIPOS>ATOM
   1 O1            -0.0144     1.2085     0.0087 O.3     
   2 N2             0.0021    -0.0041     0.0020 N.2     
   3 C3             1.2348    -0.4423    -0.0121 C.2     
   4 N4             2.0458     0.6362    -0.0141 N.2     
   5 C5             1.2412     1.6828    -0.0008 C.2     
   6 C6             3.0153    -2.1959    -0.0374 C.ar    
   7 C7             1.6624    -1.8638    -0.0231 C.ar    
   8 C8             0.7146    -2.8902    -0.0188 C.ar    
   9 C9             1.1645    -4.1996    -0.0290 C.ar    
  10 C10            2.5248    -4.4472    -0.0429 C.ar    
  11 N11            3.3961    -3.4567    -0.0462 N.ar    
  12 N12            2.5258     7.1404     0.0119 N.pl3   
  13 C13            1.2711     7.6864     0.0256 C.2     
  14 C14            0.3477     6.7125     0.0301 C.2     
  15 C15            1.0713     5.4380     0.0183 C.ar    
  16 C16            0.6766     4.1017     0.0162 C.ar    
  17 C17            1.6454     3.1038     0.0021 C.ar    
  18 C18            3.0047     3.4451    -0.0090 C.ar    
  19 C19            3.3938     4.7520    -0.0066 C.ar    
  20 C20            2.4403     5.7678     0.0070 C.ar    
  21 H21            3.7585    -1.4123    -0.0453 H       
  22 H22           -0.3422    -2.6679    -0.0075 H       
  23 H23            0.4606    -5.0187    -0.0257 H       
  24 H24            2.8794    -5.4673    -0.0509 H       
  25 H25            3.3531     7.6467     0.0027 H       
  26 H26            1.0557     8.7447     0.0322 H       
  27 H27           -0.7243     6.8431     0.0408 H       
  28 H28           -0.3720     3.8432     0.0256 H       
  29 H29            3.7516     2.6651    -0.0192 H       
  30 H30            4.4447     5.0006    -0.0152 H       
@<TRIPOS>BOND
   1    1    2 1
   2    1    5 1
   3    2    3 2
   4    3    4 1
   5    3    7 1
   6    4    5 2
   7    5   17 1
   8    6    7 ar
   9    6   11 ar
  10    6   21 1
  11    7    8 ar
  12    8    9 ar
  13    8   22 1
  14    9   10 ar
  15    9   23 1
  16   10   11 ar
  17   10   24 1
  18   12   13 1
  19   12   20 1
  20   12   25 1
  21   13   14 2
  22   13   26 1
  23   14   15 1
  24   14   27 1
  25   15   16 ar
  26   15   20 ar
  27   16   17 ar
  28   16   28 1
  29   17   18 ar
  30   18   19 ar
  31   18   29 1
  32   19   20 ar
  33   19   30 1

#	End of record

