#	Name: ASD01911260
#	Creating user name:	WinNT
#	Creation time:	15. 06. 2019 19:57

#	Modifying user name:	WinNT
#	Modification time:	15. 06. 2019 19:57

#	Program:	/corina/corina34_cracker 3.40 0067  02.08.2006

@<TRIPOS>MOLECULE
ASD01911260
  50   53    0    0    0
SMALL
NO_CHARGES


@<TRIPOS>ATOM
   1 C1            -0.8603     0.8777    -0.7692 C.3     
   2 C2            -0.1673    -0.3291    -0.1287 C.3     
   3 N3             0.8951    -0.7973    -1.0292 N.am    
   4 C4             1.9033     0.1656    -1.4930 C.3     
   5 C5             1.1871     1.3668    -2.1181 C.3     
   6 C6             0.1869     1.9399    -1.1115 C.3     
   7 C7             0.9441    -2.0856    -1.4220 C.2     
   8 O8             1.7602    -2.4373    -2.2474 O.2     
   9 C9            -0.0152    -3.0891    -0.8357 C.3     
  10 C10            2.7888    -0.4869    -2.5231 C.2     
  11 N11            4.0557    -0.7874    -2.3818 N.2     
  12 C12            4.4280    -1.3515    -3.5529 C.2     
  13 N13            3.3756    -1.3603    -4.3290 N.2     
  14 O14            2.4273    -0.8729    -3.7507 O.3     
  15 C15            5.7785    -1.8643    -3.8939 C.ar    
  16 C16            6.0178    -2.4233    -5.1473 C.ar    
  17 C17            7.2752    -2.8992    -5.4606 C.ar    
  18 C18            8.2978    -2.8222    -4.5332 C.ar    
  19 C19            8.0664    -2.2677    -3.2846 C.ar    
  20 C20            6.8123    -1.7829    -2.9637 C.ar    
  21 F21            9.0690    -2.1958    -2.3819 F       
  22 C22           -0.1646    -4.2722    -1.7943 C.3     
  23 C23           -1.1386    -5.2910    -1.1990 C.3     
  24 C24           -0.5994    -5.7877     0.1439 C.3     
  25 C25           -0.4500    -4.6046     1.1025 C.3     
  26 C26            0.5239    -3.5857     0.5072 C.3     
  27 H27           -1.3706     0.5633    -1.6796 H       
  28 H28           -1.5857     1.2939    -0.0702 H       
  29 H29            0.2667    -0.0363     0.8273 H       
  30 H30           -0.8931    -1.1275     0.0263 H       
  31 H31            2.5062     0.4987    -0.6482 H       
  32 H32            1.9189     2.1313    -2.3792 H       
  33 H33            0.6575     1.0478    -3.0158 H       
  34 H34           -0.3065     2.8098    -1.5449 H       
  35 H35            0.7138     2.2359    -0.2044 H       
  36 H36           -0.9868    -2.6183    -0.6855 H       
  37 H37            5.2203    -2.4847    -5.8730 H       
  38 H38            7.4606    -3.3329    -6.4322 H       
  39 H39            9.2799    -3.1957    -4.7826 H       
  40 H40            6.6319    -1.3507    -1.9905 H       
  41 H41           -0.5487    -3.9184    -2.7511 H       
  42 H42            0.8069    -4.7430    -1.9445 H       
  43 H43           -2.1101    -4.8202    -1.0488 H       
  44 H44           -1.2450    -6.1339    -1.8819 H       
  45 H45           -1.2933    -6.5135     0.5680 H       
  46 H46            0.3721    -6.2585    -0.0063 H       
  47 H47           -1.4215    -4.1337     1.2527 H       
  48 H48           -0.0659    -4.9584     2.0593 H       
  49 H49            1.4954    -4.0566     0.3570 H       
  50 H50            0.6303    -2.7429     1.1901 H       
@<TRIPOS>BOND
   1    1    2 1
   2    1    6 1
   3    1   27 1
   4    1   28 1
   5    2    3 1
   6    2   29 1
   7    2   30 1
   8    3    4 1
   9    3    7 am
  10    4    5 1
  11    4   10 1
  12    4   31 1
  13    5    6 1
  14    5   32 1
  15    5   33 1
  16    6   34 1
  17    6   35 1
  18    7    8 2
  19    7    9 1
  20    9   22 1
  21    9   26 1
  22    9   36 1
  23   10   11 2
  24   10   14 1
  25   11   12 1
  26   12   13 2
  27   12   15 1
  28   13   14 1
  29   15   16 ar
  30   15   20 ar
  31   16   17 ar
  32   16   37 1
  33   17   18 ar
  34   17   38 1
  35   18   19 ar
  36   18   39 1
  37   19   20 ar
  38   19   21 1
  39   20   40 1
  40   22   23 1
  41   22   41 1
  42   22   42 1
  43   23   24 1
  44   23   43 1
  45   23   44 1
  46   24   25 1
  47   24   45 1
  48   24   46 1
  49   25   26 1
  50   25   47 1
  51   25   48 1
  52   26   49 1
  53   26   50 1

#	End of record

