#	Name: ASD01230358
#	Creating user name:	WinNT
#	Creation time:	15. 06. 2019 19:14

#	Modifying user name:	WinNT
#	Modification time:	15. 06. 2019 19:14

#	Program:	/corina/corina34_cracker 3.40 0067  02.08.2006

@<TRIPOS>MOLECULE
ASD01230358
  36   38    0    0    0
SMALL
NO_CHARGES


@<TRIPOS>ATOM
   1 C1            -0.0172     1.3733     0.0078 C.ar    
   2 C2             0.0012    -0.0038    -0.0007 C.ar    
   3 C3             1.2049    -0.6869    -0.0161 C.ar    
   4 C4             2.3931     0.0224    -0.0094 C.ar    
   5 C5             2.3757     1.4016     0.0129 C.ar    
   6 C6             1.1777     2.0998     0.0011 C.ar    
   7 N7             1.0895     3.4843    -0.0546 N.3     
   8 S8             3.9046     2.2896     0.0885 S.o2    
   9 N9             3.4494     3.8882    -0.0836 N.am    
  10 C10            2.1698     4.2404     0.5655 C.3     
  11 Cl11           1.2239    -2.4225    -0.0429 Cl      
  12 O12            4.4035     2.1419     1.4108 O.2     
  13 O13            4.6423     1.9424    -1.0754 O.2     
  14 C14            4.2552     4.8640    -0.8216 C.3     
  15 C15            1.9067     5.7382     0.3974 C.3     
  16 C16           -0.2197     3.9481     0.4237 C.3     
  17 C17           -0.3685     3.6119     1.9088 C.3     
  18 C18           -1.6214     4.1190     2.6259 C.3     
  19 C19           -1.4739     2.6306     2.3037 C.3     
  20 H20           -0.9620     1.8964     0.0153 H       
  21 H21           -0.9285    -0.5535     0.0050 H       
  22 H22            3.3356    -0.5048    -0.0213 H       
  23 H23            2.2220     3.9966     1.6266 H       
  24 H24            5.1494     4.3770    -1.2105 H       
  25 H25            3.6710     5.2657    -1.6495 H       
  26 H26            4.5447     5.6755    -0.1539 H       
  27 H27            0.9617     5.9970     0.8749 H       
  28 H28            2.7150     6.3034     0.8614 H       
  29 H29            1.8561     5.9813    -0.6639 H       
  30 H30           -0.2957     5.0267     0.2859 H       
  31 H31           -1.0093     3.4531    -0.1418 H       
  32 H32            0.5599     3.5808     2.4791 H       
  33 H33           -1.5173     4.4211     3.6680 H       
  34 H34           -2.3396     4.6921     2.0396 H       
  35 H35           -2.0952     2.2245     1.5055 H       
  36 H36           -1.2729     1.9535     3.1339 H       
@<TRIPOS>BOND
   1    1    2 ar
   2    1    6 ar
   3    1   20 1
   4    2    3 ar
   5    2   21 1
   6    3    4 ar
   7    3   11 1
   8    4    5 ar
   9    4   22 1
  10    5    6 ar
  11    5    8 1
  12    6    7 1
  13    7   10 1
  14    7   16 1
  15    8    9 am
  16    8   12 2
  17    8   13 2
  18    9   10 1
  19    9   14 1
  20   10   15 1
  21   10   23 1
  22   14   24 1
  23   14   25 1
  24   14   26 1
  25   15   27 1
  26   15   28 1
  27   15   29 1
  28   16   17 1
  29   16   30 1
  30   16   31 1
  31   17   18 1
  32   17   19 1
  33   17   32 1
  34   18   19 1
  35   18   33 1
  36   18   34 1
  37   19   35 1
  38   19   36 1

#	End of record

