#	Name: ASD01208761
#	Creating user name:	WinNT
#	Creation time:	15. 06. 2019 19:10

#	Modifying user name:	WinNT
#	Modification time:	15. 06. 2019 19:10

#	Program:	/corina/corina34_cracker 3.40 0067  02.08.2006

@<TRIPOS>MOLECULE
ASD01208761
  46   47    0    0    0
SMALL
NO_CHARGES


@<TRIPOS>ATOM
   1 C1            -0.0237     1.2895    -1.2558 C.2     
   2 C2            -0.0017    -0.1237    -0.8253 C.ar    
   3 C3            -1.1988    -0.8094    -0.6126 C.ar    
   4 C4            -1.1734    -2.1338    -0.2090 C.ar    
   5 C5             0.0397    -2.7793    -0.0160 C.ar    
   6 C6             1.2318    -2.1018    -0.2261 C.ar    
   7 C7             1.2159    -0.7786    -0.6355 C.ar    
   8 O8             1.0191     1.8845    -1.4404 O.2     
   9 O9            -1.2002     1.9165    -1.4491 O.3     
  10 O10            2.4170    -2.7390    -0.0356 O.3     
  11 C11            4.7258    -2.5939     0.6636 C.3     
  12 C12            3.6034    -1.9512    -0.1537 C.3     
  13 C13            4.0215    -1.8760    -1.6235 C.3     
  14 O14            5.0580    -3.8643     0.1001 O.3     
  15 C15            6.1017    -4.5524     0.7925 C.3     
  16 O16           -2.3383    -2.8023    -0.0013 O.3     
  17 C17           -3.5502    -2.0768    -0.2182 C.3     
  18 C18           -4.7291    -2.9736     0.0592 C.ar    
  19 C19           -5.2658    -3.0359     1.3316 C.ar    
  20 C20           -6.3471    -3.8586     1.5861 C.ar    
  21 C21           -6.8920    -4.6187     0.5681 C.ar    
  22 C22           -6.3559    -4.5557    -0.7045 C.ar    
  23 C23           -5.2773    -3.7297    -0.9599 C.ar    
  24 C24           -1.1458     3.3045    -1.8719 C.3     
  25 H25           -2.1433    -0.3077    -0.7623 H       
  26 H26            0.0558    -3.8122     0.2991 H       
  27 H27            2.1445    -0.2532    -0.8032 H       
  28 H28            5.6037    -1.9479     0.6462 H       
  29 H29            4.3943    -2.7286     1.6932 H       
  30 H30            3.4108    -0.9459     0.2211 H       
  31 H31            4.9264    -1.2751    -1.7136 H       
  32 H32            4.2141    -2.8813    -1.9983 H       
  33 H33            3.2219    -1.4182    -2.2058 H       
  34 H34            5.7986    -4.7277     1.8248 H       
  35 H35            6.2944    -5.5071     0.3033 H       
  36 H36            7.0080    -3.9470     0.7778 H       
  37 H37           -3.5831    -1.2163     0.4501 H       
  38 H38           -3.5890    -1.7352    -1.2526 H       
  39 H39           -4.8401    -2.4421     2.1269 H       
  40 H40           -6.7660    -3.9078     2.5803 H       
  41 H41           -7.7364    -5.2619     0.7671 H       
  42 H42           -6.7814    -5.1497    -1.4997 H       
  43 H43           -4.8607    -3.6777    -1.9550 H       
  44 H44           -2.1591     3.6881    -1.9908 H       
  45 H45           -0.6204     3.8931    -1.1198 H       
  46 H46           -0.6170     3.3743    -2.8225 H       
@<TRIPOS>BOND
   1    1    2 1
   2    1    8 2
   3    1    9 1
   4    2    3 ar
   5    2    7 ar
   6    3    4 ar
   7    3   25 1
   8    4    5 ar
   9    4   16 1
  10    5    6 ar
  11    5   26 1
  12    6    7 ar
  13    6   10 1
  14    7   27 1
  15    9   24 1
  16   10   12 1
  17   11   12 1
  18   11   14 1
  19   11   28 1
  20   11   29 1
  21   12   13 1
  22   12   30 1
  23   13   31 1
  24   13   32 1
  25   13   33 1
  26   14   15 1
  27   15   34 1
  28   15   35 1
  29   15   36 1
  30   16   17 1
  31   17   18 1
  32   17   37 1
  33   17   38 1
  34   18   19 ar
  35   18   23 ar
  36   19   20 ar
  37   19   39 1
  38   20   21 ar
  39   20   40 1
  40   21   22 ar
  41   21   41 1
  42   22   23 ar
  43   22   42 1
  44   23   43 1
  45   24   44 1
  46   24   45 1
  47   24   46 1

#	End of record

