#	Name: ASD07930267
#	Creating user name:	WinNT
#	Creation time:	15. 06. 2019 21:12

#	Modifying user name:	WinNT
#	Modification time:	15. 06. 2019 21:12

#	Program:	/corina/corina34_cracker 3.40 0067  02.08.2006

@<TRIPOS>MOLECULE
ASD07930267
  61   65    0    0    0
SMALL
NO_CHARGES


@<TRIPOS>ATOM
   1 C1             0.6419     0.4718    -0.3862 C.2     
   2 C2             0.9618    -0.8581    -0.3690 C.2     
   3 C3             2.3685    -1.2448    -0.2357 C.2     
   4 N4             3.3071    -0.2880    -0.1321 N.am    
   5 C5             2.9600     1.0440    -0.1538 C.2     
   6 C6             1.6600     1.4272    -0.2770 C.2     
   7 C7             4.7261    -0.6410     0.0091 C.3     
   8 C8             5.5468     0.3350    -0.8471 C.3     
   9 N9             5.2982     1.7011    -0.3651 N.am    
  10 C10            4.0321     2.0576    -0.0418 C.2     
  11 C11            6.3991     2.6591    -0.2369 C.3     
  12 O12            3.7818     3.1869     0.3326 O.2     
  13 O13            2.6847    -2.4223    -0.2185 O.2     
  14 N14           -0.0361    -1.8310    -0.4763 N.pl3   
  15 C15           -0.1965    -2.7149    -1.4961 C.2     
  16 N16           -1.2361    -3.4610    -1.2394 N.2     
  17 C17           -1.7712    -3.0898    -0.0666 C.2     
  18 C18           -1.0349    -2.0780     0.4304 C.2     
  19 C19           -2.9836    -3.7034     0.5851 C.3     
  20 C20            6.6431     3.3392    -1.5855 C.3     
  21 O21            5.4953     4.1110    -1.9444 O.3     
  22 C22            5.5013     4.6904    -3.1728 C.ar    
  23 C23            6.5394     4.4382    -4.0557 C.ar    
  24 C24            6.5443     5.0283    -5.3050 C.ar    
  25 C25            5.5154     5.8737    -5.6827 C.ar    
  26 C26            4.4754     6.1339    -4.8143 C.ar    
  27 C27            4.4568     5.5393    -3.5537 C.ar    
  28 C28            3.0304     7.1305    -2.2722 C.ar    
  29 C29            3.3422     5.8148    -2.6170 C.ar    
  30 C30            1.9952     7.3877    -1.4023 C.ar    
  31 C31            1.2563     6.3304    -0.8642 C.ar    
  32 C32            1.5693     5.0127    -1.2108 C.ar    
  33 C33            2.6047     4.7582    -2.0807 C.ar    
  34 C34            1.6591     8.8087    -1.0297 C.3     
  35 F35            2.5307     9.6822    -1.6888 F       
  36 F36            0.3420     9.0908    -1.4077 F       
  37 F37            1.7925     8.9722     0.3533 F       
  38 C38            0.1794     6.5967     0.0414 C.1     
  39 N39           -0.6749     6.8079     0.7598 N.1     
  40 H40           -0.3874     0.7827    -0.4876 H       
  41 H41            1.4111     2.4780    -0.2907 H       
  42 H42            5.0248    -0.5551     1.0539 H       
  43 H43            4.8881    -1.6614    -0.3381 H       
  44 H44            6.6074     0.1011    -0.7540 H       
  45 H45            5.2411     0.2533    -1.8901 H       
  46 H46            6.1409     3.4117     0.5081 H       
  47 H47            7.3026     2.1348     0.0744 H       
  48 H48            0.4307    -2.7874    -2.3723 H       
  49 H49           -1.2029    -1.5562     1.3610 H       
  50 H50           -2.6724    -4.5245     1.2310 H       
  51 H51           -3.4978    -2.9483     1.1796 H       
  52 H52           -3.6573    -4.0814    -0.1838 H       
  53 H53            7.5119     3.9932    -1.5107 H       
  54 H54            6.8237     2.5809    -2.3474 H       
  55 H55            7.3455     3.7801    -3.7667 H       
  56 H56            7.3551     4.8292    -5.9901 H       
  57 H57            5.5269     6.3316    -6.6608 H       
  58 H58            3.6744     6.7941    -5.1125 H       
  59 H59            3.6044     7.9470    -2.6847 H       
  60 H60            0.9993     4.1949    -0.7954 H       
  61 H61            2.8467     3.7403    -2.3486 H       
@<TRIPOS>BOND
   1    1    2 2
   2    1    6 1
   3    1   40 1
   4    2    3 1
   5    2   14 1
   6    3    4 am
   7    3   13 2
   8    4    5 1
   9    4    7 1
  10    5    6 2
  11    5   10 1
  12    6   41 1
  13    7    8 1
  14    7   42 1
  15    7   43 1
  16    8    9 1
  17    8   44 1
  18    8   45 1
  19    9   10 am
  20    9   11 1
  21   10   12 2
  22   11   20 1
  23   11   46 1
  24   11   47 1
  25   14   15 1
  26   14   18 1
  27   15   16 2
  28   15   48 1
  29   16   17 1
  30   17   18 2
  31   17   19 1
  32   18   49 1
  33   19   50 1
  34   19   51 1
  35   19   52 1
  36   20   21 1
  37   20   53 1
  38   20   54 1
  39   21   22 1
  40   22   23 ar
  41   22   27 ar
  42   23   24 ar
  43   23   55 1
  44   24   25 ar
  45   24   56 1
  46   25   26 ar
  47   25   57 1
  48   26   27 ar
  49   26   58 1
  50   27   29 1
  51   28   29 ar
  52   28   30 ar
  53   28   59 1
  54   29   33 ar
  55   30   31 ar
  56   30   34 1
  57   31   32 ar
  58   31   38 1
  59   32   33 ar
  60   32   60 1
  61   33   61 1
  62   34   35 1
  63   34   36 1
  64   34   37 1
  65   38   39 3

#	End of record

