#	Name: ASD01814743
#	Creating user name:	WinNT
#	Creation time:	15. 06. 2019 19:32

#	Modifying user name:	WinNT
#	Modification time:	15. 06. 2019 19:32

#	Program:	/corina/corina34_cracker 3.40 0067  02.08.2006

@<TRIPOS>MOLECULE
ASD01814743
  59   63    0    0    0
SMALL
NO_CHARGES


@<TRIPOS>ATOM
   1 C1            -0.0178     1.4608     0.0101 C.3     
   2 N2             0.0021    -0.0041     0.0020 N.pl3   
   3 C3             0.0077    -0.7875    -1.0939 C.2     
   4 C4             0.0273    -2.0862    -0.6731 C.2     
   5 C5             0.0335    -2.0755     0.7360 C.2     
   6 N6             0.0245    -0.8305     1.1319 N.2     
   7 C7             0.0393    -3.2890    -1.5409 C.ar    
   8 C8             0.0533    -4.5572    -0.9640 C.ar    
   9 C9             0.0639    -5.6700    -1.7865 C.ar    
  10 C10            0.0601    -5.4781    -3.1611 C.ar    
  11 C11            0.0708    -6.6613    -4.0943 C.3     
  12 C12           -1.3464    -7.0701    -4.4034 C.ar    
  13 C13           -1.9662    -8.0579    -3.6840 C.ar    
  14 C14           -3.2816    -8.4134    -3.9963 C.ar    
  15 N15           -3.9443    -7.8143    -4.9756 N.ar    
  16 C16           -3.3904    -6.8562    -5.6981 C.ar    
  17 N17           -3.8403    -6.0873    -6.7463 N.pl3   
  18 C18           -5.1744    -6.1804    -7.3446 C.3     
  19 C19           -2.8597    -5.2230    -7.1471 C.2     
  20 C20           -1.7603    -5.3930    -6.3924 C.2     
  21 C21           -2.0654    -6.4477    -5.4278 C.ar    
  22 C22           -3.9478    -9.4808    -3.2179 C.2     
  23 O23           -3.3516   -10.0386    -2.3175 O.2     
  24 N24           -5.2157    -9.8345    -3.5072 N.am    
  25 C25           -5.8754   -10.8914    -2.7364 C.3     
  26 H26           -5.1449   -11.6524    -2.4618 H       
  27 C27           -6.4924   -10.2922    -1.4689 C.3     
  28 C28           -7.2460   -11.3879    -0.7105 C.3     
  29 O29           -8.2425   -11.9561    -1.5627 O.3     
  30 C30           -7.7198   -12.5729    -2.7410 C.3     
  31 C31           -6.9837   -11.5264    -3.5818 C.3     
  32 H32           -7.6865   -10.7560    -3.8991 H       
  33 O33           -6.4089   -12.1524    -4.7305 O.3     
  34 C34            0.0459    -4.1915    -3.6660 C.ar    
  35 N35            0.0309    -3.1486    -2.8603 N.ar    
  36 H36            1.0048     1.8381     0.0023 H       
  37 H37           -0.5450     1.8219    -0.8730 H       
  38 H38           -0.5280     1.8123     0.9069 H       
  39 H39           -0.0015    -0.4495    -2.1196 H       
  40 H40            0.0482    -2.9447     1.3768 H       
  41 H41            0.0563    -4.6702     0.1101 H       
  42 H42            0.0753    -6.6656    -1.3682 H       
  43 H43            0.5806    -6.3903    -5.0188 H       
  44 H44            0.5937    -7.4925    -3.6212 H       
  45 H45           -1.4427    -8.5579    -2.8826 H       
  46 H46           -5.8523    -5.5005    -6.8284 H       
  47 H47           -5.1197    -5.9081    -8.3986 H       
  48 H48           -5.5438    -7.2017    -7.2518 H       
  49 H49           -2.9542    -4.5091    -7.9519 H       
  50 H50           -0.8304    -4.8506    -6.4794 H       
  51 H51           -5.6915    -9.3893    -4.2258 H       
  52 H52           -5.7028    -9.8878    -0.8355 H       
  53 H53           -7.1849    -9.4961    -1.7422 H       
  54 H54           -6.5456   -12.1641    -0.4023 H       
  55 H55           -7.7230   -10.9580     0.1703 H       
  56 H56           -7.0256   -13.3647    -2.4594 H       
  57 H57           -8.5382   -12.9968    -3.3230 H       
  58 H58           -7.0549   -12.5760    -5.3122 H       
  59 H59            0.0432    -4.0388    -4.7351 H       
@<TRIPOS>BOND
   1    1    2 1
   2    1   36 1
   3    1   37 1
   4    1   38 1
   5    2    6 1
   6    2    3 1
   7    3    4 2
   8    3   39 1
   9    4    5 1
  10    4    7 1
  11    5    6 2
  12    5   40 1
  13    7   35 ar
  14    7    8 ar
  15    8    9 ar
  16    8   41 1
  17    9   10 ar
  18    9   42 1
  19   10   11 1
  20   10   34 ar
  21   11   12 1
  22   11   43 1
  23   11   44 1
  24   12   21 ar
  25   12   13 ar
  26   13   14 ar
  27   13   45 1
  28   14   15 ar
  29   14   22 1
  30   15   16 ar
  31   16   21 ar
  32   16   17 1
  33   17   18 1
  34   17   19 1
  35   18   46 1
  36   18   47 1
  37   18   48 1
  38   19   20 2
  39   19   49 1
  40   20   21 1
  41   20   50 1
  42   22   23 2
  43   22   24 am
  44   24   25 1
  45   24   51 1
  46   25   26 1
  47   25   31 1
  48   25   27 1
  49   27   28 1
  50   27   52 1
  51   27   53 1
  52   28   29 1
  53   28   54 1
  54   28   55 1
  55   29   30 1
  56   30   31 1
  57   30   56 1
  58   30   57 1
  59   31   32 1
  60   31   33 1
  61   33   58 1
  62   34   35 ar
  63   34   59 1

#	End of record

