#	Name: ASD01150223
#	Creating user name:	WinNT
#	Creation time:	15. 06. 2019 19:03

#	Modifying user name:	WinNT
#	Modification time:	15. 06. 2019 19:03

#	Program:	/corina/corina34_cracker 3.40 0067  02.08.2006

@<TRIPOS>MOLECULE
ASD01150223
  53   57    0    0    0
SMALL
NO_CHARGES


@<TRIPOS>ATOM
   1 C1            -0.0159     1.3176     0.0093 C.ar    
   2 N2             0.0021    -0.0041     0.0020 N.ar    
   3 C3             1.1575    -0.6594    -0.0120 C.ar    
   4 C4             2.3521     0.0393    -0.0265 C.ar    
   5 N5             2.3457     1.3652    -0.0168 N.ar    
   6 C6             1.1996     2.0248     0.0015 C.ar    
   7 C7             1.1473     3.5011     0.0147 C.2     
   8 N8            -0.0646     4.0975     0.0320 N.am    
   9 C9            -1.1951     3.3739     0.0368 C.2     
  10 N10           -1.2005     2.0302     0.0302 N.am    
  11 C11           -0.1465     5.5601     0.0462 C.3     
  12 O12            2.1678     4.1617     0.0105 O.2     
  13 C13           -0.1885     6.0747    -1.3696 C.ar    
  14 C14           -1.4032     6.2435    -2.0077 C.ar    
  15 C15           -1.4423     6.7154    -3.3062 C.ar    
  16 C16           -0.2655     7.0188    -3.9674 C.ar    
  17 C17            0.9498     6.8496    -3.3283 C.ar    
  18 C18            0.9874     6.3830    -2.0278 C.ar    
  19 Cl19          -0.3139     7.6110    -5.5986 Cl      
  20 O20           -2.2603     3.9596     0.0518 O.2     
  21 C21           -2.4771     1.3117     0.0350 C.3     
  22 C22           -2.9243     1.0724    -1.3841 C.ar    
  23 C23            1.1018    -2.1651    -0.0024 C.3     
  24 C24            2.4366    -2.7542    -0.4540 C.3     
  25 C25            3.5561    -2.1078     0.3700 C.3     
  26 C26            3.6919    -0.6488    -0.0608 C.3     
  27 C27           -2.5410    -0.0820    -2.0431 C.ar    
  28 C28           -2.9470    -0.3098    -3.3463 C.ar    
  29 C29           -3.7379     0.6140    -3.9969 C.ar    
  30 C30           -4.1290     1.7814    -3.3376 C.ar    
  31 C31           -3.7196     2.0025    -2.0212 C.ar    
  32 C32           -4.9500     2.7449    -4.0069 C.1     
  33 N33           -5.6014     3.5093    -4.5379 N.1     
  34 H34           -1.0504     5.8683     0.5717 H       
  35 H35            0.7267     5.9680     0.5553 H       
  36 H36           -2.3217     6.0063    -1.4915 H       
  37 H37           -2.3913     6.8469    -3.8047 H       
  38 H38            1.8688     7.0863    -3.8440 H       
  39 H39            1.9360     6.2509    -1.5288 H       
  40 H40           -2.3539     0.3553     0.5432 H       
  41 H41           -3.2269     1.9065     0.5567 H       
  42 H42            0.8798    -2.5102     1.0074 H       
  43 H43            0.3142    -2.5000    -0.6774 H       
  44 H44            2.4359    -3.8317    -0.2894 H       
  45 H45            2.5913    -2.5422    -1.5119 H       
  46 H46            3.3061    -2.1557     1.4299 H       
  47 H47            4.4943    -2.6326     0.1897 H       
  48 H48            4.0909    -0.6088    -1.0744 H       
  49 H49            4.3766    -0.1365     0.6150 H       
  50 H50           -1.9217    -0.8087    -1.5383 H       
  51 H51           -2.6436    -1.2128    -3.8551 H       
  52 H52           -4.0539     0.4352    -5.0141 H       
  53 H53           -4.0185     2.9031    -1.5055 H       
@<TRIPOS>BOND
   1    1    2 ar
   2    1    6 ar
   3    1   10 1
   4    2    3 ar
   5    3    4 ar
   6    3   23 1
   7    4    5 ar
   8    4   26 1
   9    5    6 ar
  10    6    7 1
  11    7    8 am
  12    7   12 2
  13    8    9 am
  14    8   11 1
  15    9   10 am
  16    9   20 2
  17   10   21 1
  18   11   13 1
  19   11   34 1
  20   11   35 1
  21   13   14 ar
  22   13   18 ar
  23   14   15 ar
  24   14   36 1
  25   15   16 ar
  26   15   37 1
  27   16   17 ar
  28   16   19 1
  29   17   18 ar
  30   17   38 1
  31   18   39 1
  32   21   22 1
  33   21   40 1
  34   21   41 1
  35   22   27 ar
  36   22   31 ar
  37   23   24 1
  38   23   42 1
  39   23   43 1
  40   24   25 1
  41   24   44 1
  42   24   45 1
  43   25   26 1
  44   25   46 1
  45   25   47 1
  46   26   48 1
  47   26   49 1
  48   27   28 ar
  49   27   50 1
  50   28   29 ar
  51   28   51 1
  52   29   30 ar
  53   29   52 1
  54   30   31 ar
  55   30   32 1
  56   31   53 1
  57   32   33 3

#	End of record

