#	Name: ASD02570005
#	Creating user name:	WinNT
#	Creation time:	15. 06. 2019 20:25

#	Modifying user name:	WinNT
#	Modification time:	15. 06. 2019 20:25

#	Program:	/corina/corina34_cracker 3.40 0067  02.08.2006

@<TRIPOS>MOLECULE
ASD02570005
  60   62    0    0    0
SMALL
NO_CHARGES


@<TRIPOS>ATOM
   1 C1            -0.1522     1.5486    -0.2304 C.3     
   2 C2             0.1355     0.1127     0.2240 C.3     
   3 C3             0.8324    -0.6233    -0.9183 C.3     
   4 C4             2.0094     0.1717    -1.4217 C.ar    
   5 C5             2.1644     1.5152    -1.1543 C.ar    
   6 C6             1.1756     2.2969    -0.3290 C.3     
   7 C7             2.9608    -0.4983    -2.1839 C.ar    
   8 C8             4.0596     0.1645    -2.6802 C.ar    
   9 C9             4.2214     1.5273    -2.4157 C.ar    
  10 C10            3.2659     2.1947    -1.6506 C.ar    
  11 C11            0.9388     3.6599    -0.9826 C.3     
  12 C12            1.7438     2.5042     1.0764 C.3     
  13 C13            1.3201    -1.9845    -0.4180 C.3     
  14 C14           -0.1607    -0.8338    -2.0629 C.3     
  15 C15            5.3918     2.2528    -2.9415 C.2     
  16 C16            6.4123     2.8255    -1.9920 C.3     
  17 C17            5.5486     2.4033    -4.2662 C.2     
  18 C18            6.7955     2.9805    -4.7998 C.ar    
  19 C19            8.0174     2.7067    -4.1797 C.ar    
  20 C20            9.1802     3.2499    -4.6849 C.ar    
  21 C21            9.1386     4.0645    -5.8027 C.ar    
  22 C22            7.9321     4.3404    -6.4218 C.ar    
  23 C23            6.7620     3.7993    -5.9315 C.ar    
  24 S24           10.6292     4.7544    -6.4406 S.o2    
  25 O25           10.2106     5.9377    -7.1069 O.2     
  26 O26           11.4967     4.8143    -5.3168 O.2     
  27 C27           11.2210     3.5258    -7.6368 C.3     
  28 C28           12.5262     4.0154    -8.2673 C.3     
  29 H29           -0.6390     1.5346    -1.2055 H       
  30 H30           -0.7983     2.0412     0.4961 H       
  31 H31            0.7835     0.1279     1.1004 H       
  32 H32           -0.8005    -0.3898     0.4676 H       
  33 H33            2.8356    -1.5514    -2.3883 H       
  34 H34            4.7928    -0.3651    -3.2703 H       
  35 H35            3.3848     3.2479    -1.4432 H       
  36 H36            0.5431     3.5168    -1.9881 H       
  37 H37            0.2237     4.2286    -0.3882 H       
  38 H38            1.8810     4.2052    -1.0371 H       
  39 H39            2.6818     3.0555     1.0114 H       
  40 H40            1.0310     3.0696     1.6767 H       
  41 H41            1.9232     1.5353     1.5423 H       
  42 H42            0.4689    -2.5704    -0.0714 H       
  43 H43            1.8183    -2.5131    -1.2307 H       
  44 H44            2.0206    -1.8397     0.4044 H       
  45 H45           -0.5186     0.1334    -2.4159 H       
  46 H46            0.3331    -1.3590    -2.8804 H       
  47 H47           -1.0043    -1.4257    -1.7077 H       
  48 H48            7.1953     2.0888    -1.8125 H       
  49 H49            6.8509     3.7230    -2.4281 H       
  50 H50            5.9288     3.0790    -1.0486 H       
  51 H51            4.7612     2.1016    -4.9409 H       
  52 H52            8.0513     2.0716    -3.3068 H       
  53 H53           10.1253     3.0392    -4.2068 H       
  54 H54            7.9072     4.9777    -7.2934 H       
  55 H55            5.8211     4.0155    -6.4156 H       
  56 H56           11.3965     2.5781    -7.1277 H       
  57 H57           10.4712     3.3864    -8.4156 H       
  58 H58           12.3507     4.9630    -8.7765 H       
  59 H59           13.2760     4.1547    -7.4885 H       
  60 H60           12.8818     3.2771    -8.9861 H       
@<TRIPOS>BOND
   1    1    2 1
   2    1    6 1
   3    1   29 1
   4    1   30 1
   5    2    3 1
   6    2   31 1
   7    2   32 1
   8    3    4 1
   9    3   13 1
  10    3   14 1
  11    4    5 ar
  12    4    7 ar
  13    5    6 1
  14    5   10 ar
  15    6   11 1
  16    6   12 1
  17    7    8 ar
  18    7   33 1
  19    8    9 ar
  20    8   34 1
  21    9   10 ar
  22    9   15 1
  23   10   35 1
  24   11   36 1
  25   11   37 1
  26   11   38 1
  27   12   39 1
  28   12   40 1
  29   12   41 1
  30   13   42 1
  31   13   43 1
  32   13   44 1
  33   14   45 1
  34   14   46 1
  35   14   47 1
  36   15   16 1
  37   15   17 2
  38   16   48 1
  39   16   49 1
  40   16   50 1
  41   17   18 1
  42   17   51 1
  43   18   19 ar
  44   18   23 ar
  45   19   20 ar
  46   19   52 1
  47   20   21 ar
  48   20   53 1
  49   21   22 ar
  50   21   24 1
  51   22   23 ar
  52   22   54 1
  53   23   55 1
  54   24   25 2
  55   24   26 2
  56   24   27 1
  57   27   28 1
  58   27   56 1
  59   27   57 1
  60   28   58 1
  61   28   59 1
  62   28   60 1

#	End of record

