#	Name: ASD01813067
#	Creating user name:	WinNT
#	Creation time:	15. 06. 2019 19:29

#	Modifying user name:	WinNT
#	Modification time:	15. 06. 2019 19:29

#	Program:	/corina/corina34_cracker 3.40 0067  02.08.2006

@<TRIPOS>MOLECULE
ASD01813067
  48   51    0    0    0
SMALL
NO_CHARGES


@<TRIPOS>ATOM
   1 C1             0.2825     1.5314    -0.4554 C.2     
   2 C2             0.4027     0.1959    -0.3711 C.2     
   3 N3            -0.6742    -0.5849    -0.0594 N.pl3   
   4 C4            -1.8933    -0.0927     0.1908 C.2     
   5 C5            -2.1159     1.2691     0.1382 C.2     
   6 C6            -0.9806     2.1359    -0.2032 C.2     
   7 O7            -1.1161     3.3477    -0.2633 O.2     
   8 C8            -0.4847    -2.0362     0.0038 C.3     
   9 C9            -0.2059    -2.4448     1.4273 C.ar    
  10 C10            1.4258     2.4431    -0.8137 C.3     
  11 C11            2.7643     1.7311    -0.6300 C.3     
  12 C12            2.6912     0.3821    -1.3561 C.3     
  13 C13            1.7139    -0.5150    -0.6011 C.3     
  14 C14           -1.2700    -2.6576     2.3012 C.ar    
  15 C15           -1.0529    -3.0270     3.5933 C.ar    
  16 C16            0.2629    -3.1974     4.0558 C.ar    
  17 C17            1.3454    -2.9815     3.1666 C.ar    
  18 C18            1.0817    -2.6059     1.8386 C.ar    
  19 O19            1.2930     2.8506    -2.1769 O.3     
  20 C20            1.3853     3.6794     0.0867 C.3     
  21 C21            0.5266    -3.5775     5.3829 C.ar    
  22 C22            1.8141    -3.7327     5.7956 C.ar    
  23 C23            2.8786    -3.5204     4.9213 C.ar    
  24 C24            2.6616    -3.1517     3.6294 C.ar    
  25 C25           -3.4473     1.8327     0.4114 C.2     
  26 O26           -4.3736     1.0965     0.6891 O.2     
  27 O27           -3.6397     3.1655     0.3539 O.3     
  28 H28           -2.7051    -0.7622     0.4341 H       
  29 H29           -1.3873    -2.5361    -0.3475 H       
  30 H30            0.3572    -2.3205    -0.6274 H       
  31 H31            3.5644     2.3359    -1.0568 H       
  32 H32            2.9516     1.5680     0.4314 H       
  33 H33            2.3387     0.5326    -2.3765 H       
  34 H34            3.6779    -0.0807    -1.3720 H       
  35 H35            2.1475    -0.7879     0.3610 H       
  36 H36            1.5346    -1.4193    -1.1825 H       
  37 H37           -2.2824    -2.5273     1.9482 H       
  38 H38           -1.8875    -3.1878     4.2595 H       
  39 H39            1.8966    -2.4380     1.1500 H       
  40 H40            1.9955     3.4414    -2.4810 H       
  41 H41            1.2752     3.3688     1.1257 H       
  42 H42            2.3113     4.2429    -0.0280 H       
  43 H43            0.5405     4.3074    -0.1963 H       
  44 H44           -0.2881    -3.7451     6.0717 H       
  45 H45            2.0140    -4.0245     6.8160 H       
  46 H46            3.8910    -3.6505     5.2743 H       
  47 H47            3.4963    -2.9910     2.9632 H       
  48 H48           -4.5316     3.4888     0.5411 H       
@<TRIPOS>BOND
   1    1    2 2
   2    1   10 1
   3    1    6 1
   4    2    3 1
   5    2   13 1
   6    3    4 1
   7    3    8 1
   8    4    5 2
   9    4   28 1
  10    5    6 1
  11    5   25 1
  12    6    7 2
  13    8    9 1
  14    8   29 1
  15    8   30 1
  16    9   14 ar
  17    9   18 ar
  18   10   11 1
  19   10   19 1
  20   10   20 1
  21   11   12 1
  22   11   31 1
  23   11   32 1
  24   12   13 1
  25   12   33 1
  26   12   34 1
  27   13   35 1
  28   13   36 1
  29   14   15 ar
  30   14   37 1
  31   15   16 ar
  32   15   38 1
  33   16   17 ar
  34   16   21 ar
  35   17   18 ar
  36   17   24 ar
  37   18   39 1
  38   19   40 1
  39   20   41 1
  40   20   42 1
  41   20   43 1
  42   21   22 ar
  43   21   44 1
  44   22   23 ar
  45   22   45 1
  46   23   24 ar
  47   23   46 1
  48   24   47 1
  49   25   26 2
  50   25   27 1
  51   27   48 1

#	End of record

