#	Name: ASD01430004
#	Creating user name:	WinNT
#	Creation time:	15. 06. 2019 19:20

#	Modifying user name:	WinNT
#	Modification time:	15. 06. 2019 19:20

#	Program:	/corina/corina34_cracker 3.40 0067  02.08.2006

@<TRIPOS>MOLECULE
ASD01430004
  19   18    0    0    0
SMALL
NO_CHARGES


@<TRIPOS>ATOM
   1 C1            -0.0187     1.5258     0.0104 C.3     
   2 C2             0.0021    -0.0041     0.0020 C.3     
   3 C3            -1.4333    -0.5336     0.0129 C.3     
   4 O4             1.3220     2.0204     0.0003 O.3     
   5 O5            -1.4146    -1.9583     0.1225 O.3     
   6 C6             0.7182    -0.4975    -1.2568 C.3     
   7 O7             0.0271    -0.0241    -2.4145 O.3     
   8 N8             0.7126    -0.4907     1.1921 N.3     
   9 H9            -0.5459     1.8868    -0.8726 H       
  10 H10           -0.5289     1.8773     0.9072 H       
  11 H11           -1.9701    -0.1109     0.8621 H       
  12 H12           -1.9334    -0.2470    -0.9122 H       
  13 H13            1.3852     2.9853     0.0049 H       
  14 H14           -2.2926    -2.3634     0.1353 H       
  15 H15            1.7408    -0.1202    -1.2645 H       
  16 H16            0.7330    -1.5874    -1.2628 H       
  17 H17            0.4265    -0.2995    -3.2510 H       
  18 H18            0.2587    -0.1779     2.0373 H       
  19 H19            0.7962    -1.4961     1.1774 H       
@<TRIPOS>BOND
   1    1    2 1
   2    1    4 1
   3    1    9 1
   4    1   10 1
   5    2    3 1
   6    2    6 1
   7    2    8 1
   8    3    5 1
   9    3   11 1
  10    3   12 1
  11    4   13 1
  12    5   14 1
  13    6    7 1
  14    6   15 1
  15    6   16 1
  16    7   17 1
  17    8   18 1
  18    8   19 1

#	End of record

