#	Name: ASD07930119
#	Creating user name:	WinNT
#	Creation time:	15. 06. 2019 21:11

#	Modifying user name:	WinNT
#	Modification time:	15. 06. 2019 21:11

#	Program:	/corina/corina34_cracker 3.40 0067  02.08.2006

@<TRIPOS>MOLECULE
ASD07930119
  57   61    0    0    0
SMALL
NO_CHARGES


@<TRIPOS>ATOM
   1 C1             1.5178     1.6733     2.6820 C.2     
   2 C2             1.5027     0.1939     2.7071 C.2     
   3 N3             2.5606     2.3112     2.0491 N.am    
   4 N4             2.6699    -0.4697     2.5278 N.am    
   5 C5             3.9051     0.3071     2.3516 C.3     
   6 C6             3.6068     1.4926     1.4216 C.3     
   7 C7             0.5158     2.3826     3.2693 C.2     
   8 C8             0.5267     3.7828     3.2498 C.2     
   9 C9             1.5568     4.4399     2.6344 C.2     
  10 C10            2.6203     3.6535     2.0045 C.2     
  11 O11            0.4646    -0.4133     2.8853 O.2     
  12 O12            3.5498     4.2105     1.4458 O.2     
  13 C13            2.5124     6.6368     3.2000 C.2     
  14 N14            2.2112     7.8806     2.9443 N.2     
  15 C15            1.1051     7.9236     2.1864 C.2     
  16 C16            0.7006     6.6594     1.9604 C.2     
  17 N17            1.5908     5.8368     2.6019 N.pl3   
  18 C18            0.4313     9.1714     1.6765 C.3     
  19 C19            2.7004    -1.9343     2.5094 C.3     
  20 C20            2.4995    -2.4306     1.0761 C.3     
  21 O21            3.6055    -2.0193     0.2702 O.3     
  22 C22            3.5831    -2.3817    -1.0399 C.ar    
  23 C23            4.6251    -2.0156    -1.8795 C.ar    
  24 C24            4.6012    -2.3849    -3.2102 C.ar    
  25 C25            3.5376    -3.1197    -3.7066 C.ar    
  26 C26            2.4972    -3.4856    -2.8700 C.ar    
  27 C27            2.5213    -3.1225    -1.5370 C.ar    
  28 C28            5.7822    -1.2150    -1.3399 C.3     
  29 C29            6.5014    -1.7581    -0.1034 C.3     
  30 C30            7.1818    -1.8188    -1.4725 C.3     
  31 C31            5.6522     0.3037    -1.4714 C.3     
  32 F32            4.4162     0.7121    -0.9588 F       
  33 F33            6.6818     0.9237    -0.7553 F       
  34 F34            5.7397     0.6642    -2.8203 F       
  35 F35            3.5151    -3.4795    -5.0086 F       
  36 H36            4.2462     0.6770     3.3185 H       
  37 H37            4.6740    -0.3237     1.9056 H       
  38 H38            3.2577     1.1250     0.4567 H       
  39 H39            4.5087     2.0893     1.2847 H       
  40 H40           -0.2957     1.8608     3.7547 H       
  41 H41           -0.2721     4.3398     3.7168 H       
  42 H42            3.3554     6.2995     3.7848 H       
  43 H43           -0.1598     6.3521     1.3844 H       
  44 H44            0.8483     9.4385     0.7055 H       
  45 H45           -0.6388     8.9910     1.5752 H       
  46 H46            0.5973     9.9873     2.3800 H       
  47 H47            3.6634    -2.2824     2.8828 H       
  48 H48            1.9031    -2.3223     3.1433 H       
  49 H49            2.4333    -3.5186     1.0743 H       
  50 H50            1.5789    -2.0099     0.6716 H       
  51 H51            5.4123    -2.1000    -3.8641 H       
  52 H52            1.6683    -4.0588    -3.2584 H       
  53 H53            1.7115    -3.4117    -0.8836 H       
  54 H54            6.8822    -1.0333     0.6161 H       
  55 H55            6.1375    -2.6944     0.3198 H       
  56 H56            7.2656    -2.7951    -1.9500 H       
  57 H57            8.0102    -1.1340    -1.6536 H       
@<TRIPOS>BOND
   1    1    2 1
   2    1    3 1
   3    1    7 2
   4    2    4 am
   5    2   11 2
   6    3    6 1
   7    3   10 am
   8    4    5 1
   9    4   19 1
  10    5    6 1
  11    5   36 1
  12    5   37 1
  13    6   38 1
  14    6   39 1
  15    7    8 1
  16    7   40 1
  17    8    9 2
  18    8   41 1
  19    9   10 1
  20    9   17 1
  21   10   12 2
  22   13   14 2
  23   13   17 1
  24   13   42 1
  25   14   15 1
  26   15   16 2
  27   15   18 1
  28   16   17 1
  29   16   43 1
  30   18   44 1
  31   18   45 1
  32   18   46 1
  33   19   20 1
  34   19   47 1
  35   19   48 1
  36   20   21 1
  37   20   49 1
  38   20   50 1
  39   21   22 1
  40   22   23 ar
  41   22   27 ar
  42   23   24 ar
  43   23   28 1
  44   24   25 ar
  45   24   51 1
  46   25   26 ar
  47   25   35 1
  48   26   27 ar
  49   26   52 1
  50   27   53 1
  51   28   29 1
  52   28   30 1
  53   28   31 1
  54   29   30 1
  55   29   54 1
  56   29   55 1
  57   30   56 1
  58   30   57 1
  59   31   32 1
  60   31   33 1
  61   31   34 1

#	End of record

