#	Name: ASD01920022
#	Creating user name:	WinNT
#	Creation time:	15. 06. 2019 20:11

#	Modifying user name:	WinNT
#	Modification time:	15. 06. 2019 20:11

#	Program:	/corina/corina34_cracker 3.40 0067  02.08.2006

@<TRIPOS>MOLECULE
ASD01920022
  41   44    0    0    0
SMALL
NO_CHARGES


@<TRIPOS>ATOM
   1 N1            -0.0176     1.3626     0.1067 N.am    
   2 C2             0.0023    -0.0037    -0.0000 C.2     
   3 C3            -1.1521    -0.7274    -0.0898 C.2     
   4 C4            -2.3851    -0.0663    -0.0730 C.2     
   5 C5            -2.3957     1.3365     0.0369 C.2     
   6 C6            -1.1848     2.0415     0.1324 C.2     
   7 O7            -3.6722    -0.4336    -0.1381 O.3     
   8 N8            -4.4362     0.5030    -0.0861 N.2     
   9 C9            -3.8259     1.6593     0.0219 C.2     
  10 C10           -4.4482     3.0029     0.1099 C.ar    
  11 O11           -1.1870     3.2569     0.2278 O.2     
  12 C12            1.2464     2.0972     0.2005 C.3     
  13 C13            1.2997    -0.7080    -0.0189 C.ar    
  14 C14           -5.6179     3.2795    -0.5955 C.ar    
  15 C15           -6.1925     4.5314    -0.5100 C.ar    
  16 C16           -5.6095     5.5108     0.2738 C.ar    
  17 C17           -4.4483     5.2420     0.9758 C.ar    
  18 C18           -3.8686     3.9916     0.9029 C.ar    
  19 C19            2.3136    -0.2848    -0.8811 C.ar    
  20 C20            3.5238    -0.9444    -0.8964 C.ar    
  21 C21            3.7367    -2.0291    -0.0565 C.ar    
  22 C22            2.7298    -2.4552     0.8042 C.ar    
  23 C23            1.5185    -1.7962     0.8301 C.ar    
  24 F24            2.9408    -3.5118     1.6192 F       
  25 O25            4.9308    -2.6764    -0.0753 O.3     
  26 C26            5.9199    -2.1869    -0.9832 C.3     
  27 H27           -1.1137    -1.8035    -0.1736 H       
  28 H28            1.6352     2.2807    -0.8012 H       
  29 H29            1.0771     3.0487     0.7045 H       
  30 H30            1.9675     1.5088     0.7679 H       
  31 H31           -6.0736     2.5158    -1.2083 H       
  32 H32           -7.0989     4.7469    -1.0562 H       
  33 H33           -6.0624     6.4891     0.3376 H       
  34 H34           -3.9970     6.0106     1.5856 H       
  35 H35           -2.9620     3.7828     1.4514 H       
  36 H36            2.1494     0.5585    -1.5356 H       
  37 H37            4.3078    -0.6170    -1.5632 H       
  38 H38            0.7369    -2.1268     1.4981 H       
  39 H39            5.5385    -2.2462    -2.0025 H       
  40 H40            6.1528    -1.1498    -0.7421 H       
  41 H41            6.8228    -2.7915    -0.8973 H       
@<TRIPOS>BOND
   1    1    2 1
   2    1   12 1
   3    1    6 am
   4    2    3 2
   5    2   13 1
   6    3    4 1
   7    3   27 1
   8    4    5 2
   9    4    7 1
  10    5    6 1
  11    5    9 1
  12    6   11 2
  13    7    8 1
  14    8    9 2
  15    9   10 1
  16   10   14 ar
  17   10   18 ar
  18   12   28 1
  19   12   29 1
  20   12   30 1
  21   13   19 ar
  22   13   23 ar
  23   14   15 ar
  24   14   31 1
  25   15   16 ar
  26   15   32 1
  27   16   17 ar
  28   16   33 1
  29   17   18 ar
  30   17   34 1
  31   18   35 1
  32   19   20 ar
  33   19   36 1
  34   20   21 ar
  35   20   37 1
  36   21   22 ar
  37   21   25 1
  38   22   23 ar
  39   22   24 1
  40   23   38 1
  41   25   26 1
  42   26   39 1
  43   26   40 1
  44   26   41 1

#	End of record

