#	Name: ASD06162002
#	Creating user name:	WinNT
#	Creation time:	15. 06. 2019 21:05

#	Modifying user name:	WinNT
#	Modification time:	15. 06. 2019 21:05

#	Program:	/corina/corina34_cracker 3.40 0067  02.08.2006

@<TRIPOS>MOLECULE
ASD06162002
  57   60    0    0    0
SMALL
NO_CHARGES


@<TRIPOS>ATOM
   1 C1            -0.0123     1.3410     0.0184 C.2     
   2 N2             0.0004     0.0045     0.0850 N.2     
   3 C3             1.1263    -0.6652     0.0663 C.2     
   4 C4             2.3585     0.0242    -0.0252 C.2     
   5 C5             2.3497     1.4035    -0.0941 C.2     
   6 N6             1.1553     2.0555    -0.0718 N.pl3   
   7 N7             0.8256     3.4145    -0.1252 N.2     
   8 C8            -0.4769     3.5448    -0.0715 C.2     
   9 C9            -1.0560     2.2727     0.0144 C.2     
  10 C10            3.6336    -0.7192    -0.0462 C.2     
  11 O11            4.0100    -1.2516    -1.0724 O.2     
  12 N12            4.3804    -0.8078     1.0722 N.am    
  13 C13            5.6459    -1.5456     1.0514 C.3     
  14 C14            6.2901    -1.4925     2.4382 C.3     
  15 O15            5.4632    -2.1866     3.3744 O.3     
  16 C16            5.8946    -2.2337     4.6622 C.ar    
  17 C17            5.1411    -2.8912     5.6238 C.ar    
  18 C18            5.5819    -2.9377     6.9322 C.ar    
  19 C19            6.7729    -2.3297     7.2838 C.ar    
  20 C20            7.5254    -1.6734     6.3274 C.ar    
  21 C21            7.0921    -1.6294     5.0164 C.ar    
  22 C22            3.6412     2.1739    -0.1919 C.3     
  23 C23           -2.5043     1.9699     0.0894 C.ar    
  24 C24           -3.3108     2.6313     1.0152 C.ar    
  25 C25           -4.6592     2.3453     1.0800 C.ar    
  26 C26           -5.2113     1.4046     0.2290 C.ar    
  27 C27           -4.4163     0.7452    -0.6915 C.ar    
  28 C28           -3.0677     1.0264    -0.7694 C.ar    
  29 C29           -6.6845     1.0966     0.3053 C.3     
  30 C30           -7.3408     1.4068    -1.0416 C.3     
  31 C31           -6.8794    -0.3839     0.6385 C.3     
  32 H32            1.1139    -1.7438     0.1211 H       
  33 H33           -1.0161     4.4803    -0.0938 H       
  34 H34            4.0801    -0.3830     1.8909 H       
  35 H35            5.4568    -2.5837     0.7781 H       
  36 H36            6.3177    -1.0943     0.3212 H       
  37 H37            7.2720    -1.9644     2.4010 H       
  38 H38            6.3979    -0.4534     2.7492 H       
  39 H39            4.2106    -3.3659     5.3498 H       
  40 H40            4.9955    -3.4490     7.6813 H       
  41 H41            7.1157    -2.3671     8.3072 H       
  42 H42            8.4550    -1.1987     6.6046 H       
  43 H43            7.6827    -1.1208     4.2687 H       
  44 H44            4.4822     1.4863    -0.1019 H       
  45 H45            3.6890     2.6823    -1.1549 H       
  46 H46            3.6866     2.9104     0.6104 H       
  47 H47           -2.8809     3.3656     1.6803 H       
  48 H48           -5.2847     2.8566     1.7967 H       
  49 H49           -4.8530     0.0118    -1.3532 H       
  50 H50           -2.4489     0.5140    -1.4912 H       
  51 H51           -7.1436     1.7075     1.0825 H       
  52 H52           -6.8816     0.7959    -1.8188 H       
  53 H53           -8.4063     1.1840    -0.9864 H       
  54 H54           -7.2019     2.4615    -1.2790 H       
  55 H55           -6.4118    -0.6050     1.5980 H       
  56 H56           -7.9449    -0.6067     0.6937 H       
  57 H57           -6.4202    -0.9948    -0.1387 H       
@<TRIPOS>BOND
   1    1    2 1
   2    1    6 1
   3    1    9 2
   4    2    3 2
   5    3    4 1
   6    3   32 1
   7    4    5 2
   8    4   10 1
   9    5    6 1
  10    5   22 1
  11    6    7 1
  12    7    8 2
  13    8    9 1
  14    8   33 1
  15    9   23 1
  16   10   11 2
  17   10   12 am
  18   12   13 1
  19   12   34 1
  20   13   14 1
  21   13   35 1
  22   13   36 1
  23   14   15 1
  24   14   37 1
  25   14   38 1
  26   15   16 1
  27   16   17 ar
  28   16   21 ar
  29   17   18 ar
  30   17   39 1
  31   18   19 ar
  32   18   40 1
  33   19   20 ar
  34   19   41 1
  35   20   21 ar
  36   20   42 1
  37   21   43 1
  38   22   44 1
  39   22   45 1
  40   22   46 1
  41   23   24 ar
  42   23   28 ar
  43   24   25 ar
  44   24   47 1
  45   25   26 ar
  46   25   48 1
  47   26   27 ar
  48   26   29 1
  49   27   28 ar
  50   27   49 1
  51   28   50 1
  52   29   30 1
  53   29   31 1
  54   29   51 1
  55   30   52 1
  56   30   53 1
  57   30   54 1
  58   31   55 1
  59   31   56 1
  60   31   57 1

#	End of record

