#	Name: ASD06590007
#	Creating user name:	WinNT
#	Creation time:	15. 06. 2019 21:06

#	Modifying user name:	WinNT
#	Modification time:	15. 06. 2019 21:06

#	Program:	/corina/corina34_cracker 3.40 0067  02.08.2006

@<TRIPOS>MOLECULE
ASD06590007
 292  296    0    0    0
SMALL
NO_CHARGES


@<TRIPOS>ATOM
   1 C1            -4.3186    -8.9134    10.5240 C.2     
   2 O2            -4.8198    -9.9283    10.9596 O.2     
   3 N3            -2.2072    -9.9078    11.1891 N.am    
   4 C4            -2.8237    -8.7298    10.5738 C.3     
   5 C5            -2.2837    -8.5552     9.1529 C.3     
   6 C6            -0.8091    -8.2496     9.2100 C.ar    
   7 C7             0.1111    -9.2813     9.1852 C.ar    
   8 C8             1.4633    -9.0038     9.2378 C.ar    
   9 C9             1.8978    -7.6885     9.3152 C.ar    
  10 O10            3.2276    -7.4129     9.3666 O.3     
  11 C11            0.9725    -6.6551     9.3395 C.ar    
  12 C12           -0.3785    -6.9376     9.2813 C.ar    
  13 C13           -7.1198    -7.3006     8.8165 C.2     
  14 O14           -6.3841    -6.6226     8.1310 O.2     
  15 N15           -5.0982    -7.9522     9.9903 N.am    
  16 C16           -6.5510    -8.1333     9.9364 C.3     
  17 C17           -7.1695    -7.6926    11.2646 C.3     
  18 C18           -6.6947    -8.6041    12.3668 C.ar    
  19 C19           -5.5427    -8.2995    13.0675 C.ar    
  20 C20           -5.1072    -9.1356    14.0785 C.ar    
  21 C21           -5.8239   -10.2761    14.3891 C.ar    
  22 C22           -6.9764   -10.5803    13.6889 C.ar    
  23 C23           -7.4142    -9.7419    12.6808 C.ar    
  24 C24          -10.4426    -6.1821     7.7817 C.2     
  25 O25          -10.9587    -6.5916     8.8000 O.2     
  26 N26           -8.4460    -7.3093     8.5769 N.am    
  27 C27           -8.9990    -6.4998     7.4883 C.3     
  28 C28           -8.9051    -7.2789     6.1749 C.3     
  29 C29           -7.4340    -7.4931     5.8130 C.3     
  30 C30           -7.3400    -8.2722     4.4996 C.3     
  31 N31           -5.9314    -8.4773     4.1532 N.pl3   
  32 C32           -5.5977    -9.1577     3.0061 C.2     
  33 N33           -4.3445    -9.3402     2.6978 N.2     
  34 N34           -6.5859    -9.6457     2.1841 N.pl3   
  35 C35          -13.2924    -4.8697     5.9058 C.2     
  36 O36          -12.6982    -4.9330     4.8504 O.2     
  37 N37          -11.1601    -5.4430     6.9127 N.am    
  38 C38          -12.5635    -5.1342     7.1980 C.3     
  39 C39          -12.6416    -3.8940     8.0906 C.3     
  40 C40          -12.0108    -4.2033     9.4497 C.3     
  41 C41          -12.0888    -2.9631    10.3423 C.3     
  42 N42          -11.4848    -3.2593    11.6437 N.pl3   
  43 C43          -11.4394    -2.2896    12.6172 C.2     
  44 N44          -11.9337    -1.1066    12.3822 N.2     
  45 N45          -10.8726    -2.5675    13.8385 N.pl3   
  46 C46          -16.5075    -3.4266     4.9344 C.2     
  47 O47          -16.7435    -3.0516     6.0634 O.2     
  48 N48          -14.6047    -4.5630     5.9229 N.am    
  49 C49          -15.3133    -4.3059     4.6667 C.3     
  50 C50          -15.7813    -5.6322     4.0645 C.3     
  51 C51          -14.5639    -6.4744     3.6775 C.3     
  52 C52          -15.0283    -7.8488     3.1915 C.3     
  53 C53          -13.7925    -5.7716     2.5586 C.3     
  54 C54          -19.5107    -2.4225     3.1080 C.2     
  55 O55          -19.3003    -3.2155     2.2148 O.2     
  56 N56          -17.3133    -3.0569     3.9193 N.am    
  57 C57          -18.4743    -2.2022     4.1796 C.3     
  58 C58          -18.0391    -0.7354     4.1743 C.3     
  59 C59          -17.0957    -0.4871     5.3229 C.2     
  60 C60          -15.8577     0.0350     5.2316 C.2     
  61 N61          -15.3550     0.0872     6.5036 N.pl3   
  62 C62          -16.3040    -0.4053     7.3287 C.2     
  63 N63          -17.3441    -0.7421     6.6161 N.2     
  64 C64          -22.5460    -0.7259     1.9803 C.2     
  65 O65          -22.3423     0.2329     2.6945 O.2     
  66 N66          -20.6714    -1.7384     3.1422 N.am    
  67 C67          -21.6789    -1.9527     2.1005 C.3     
  68 C68          -22.5473    -3.1567     2.4707 C.3     
  69 O69          -23.2872    -2.8634     3.6576 O.3     
  70 C70          -25.7330     0.1112     0.3975 C.2     
  71 O71          -25.9049    -1.0038    -0.0477 O.2     
  72 N72          -23.5477    -0.6943     1.0791 N.am    
  73 C73          -24.3905     0.4982     0.9623 C.3     
  74 C74          -23.7178     1.5090     0.0314 C.3     
  75 C75          -22.3635     1.9169     0.6149 C.3     
  76 O76          -23.5236     0.9166    -1.2544 O.3     
  77 C77          -28.7238     1.9196    -0.6737 C.2     
  78 O78          -28.2103     3.0000    -0.4734 O.2     
  79 N79          -26.7425     1.0040     0.3871 N.am    
  80 C80          -28.0191     0.6590    -0.2434 C.3     
  81 C81          -28.8941    -0.0981     0.7577 C.3     
  82 C82          -28.2366    -1.4367     1.0995 C.3     
  83 C83          -29.1116    -2.1937     2.1006 C.3     
  84 N84          -28.4821    -3.4754     2.4279 N.pl3   
  85 C85          -29.0898    -4.3335     3.3137 C.2     
  86 N86          -30.2261    -4.0066     3.8623 N.2     
  87 N87          -28.4990    -5.5363     3.6209 N.pl3   
  88 C88          -31.5076     3.6083    -0.7517 C.2     
  89 O89          -31.6354     3.0376     0.3108 O.2     
  90 N90          -29.9248     1.8466    -1.2810 N.am    
  91 C91          -30.5628     3.0627    -1.7912 C.3     
  92 C92          -31.3421     2.7333    -3.0660 C.3     
  93 C93          -30.3808     2.3144    -4.1484 C.2     
  94 O94          -29.1988     2.2040    -3.9002 O.2     
  95 N95          -30.8347     2.0623    -5.3921 N.am    
  96 C96          -34.1983     6.0813    -0.6664 C.2     
  97 O97          -34.1936     6.2103    -1.8723 O.2     
  98 N98          -32.2105     4.7305    -1.0027 N.am    
  99 C99          -33.1290     5.2610     0.0079 C.3     
 100 C100         -32.3535     6.1417     0.9897 C.3     
 101 C101         -31.3670     5.2955     1.7525 C.ar    
 102 C102         -30.0871     5.1158     1.2613 C.ar    
 103 C103         -29.1811     4.3402     1.9584 C.ar    
 104 C104         -29.5562     3.7418     3.1525 C.ar    
 105 O105         -28.6666     2.9788     3.8404 O.3     
 106 C106         -30.8409     3.9241     3.6434 C.ar    
 107 C107         -31.7416     4.7048     2.9451 C.ar    
 108 C108         -36.7218     8.4879     0.4593 C.2     
 109 O109         -36.5911     8.2450     1.6403 O.2     
 110 N110         -35.1598     6.6718     0.0708 N.am    
 111 C111         -36.1341     7.5580    -0.5707 C.3     
 112 C112         -37.2504     6.7201    -1.1974 C.3     
 113 C113         -38.2915     7.6473    -1.8278 C.3     
 114 C114         -37.6731     8.3671    -3.0280 C.3     
 115 C115         -37.9159     5.8666    -0.1159 C.3     
 116 C116         -39.3651     9.9464     1.4360 C.2     
 117 O117         -39.7861     8.9402     0.9163 O.2     
 118 N118         -37.3927     9.5894     0.0680 N.am    
 119 C119         -38.0009    10.4705     1.0681 C.3     
 120 C120         -38.1350    11.8810     0.4908 C.3     
 121 C121         -36.7639    12.4525     0.2372 C.2     
 122 C122         -36.3145    12.9410    -0.9346 C.2     
 123 N123         -35.0267    13.3544    -0.7235 N.pl3   
 124 C124         -34.7338    13.1039     0.5708 C.2     
 125 N125         -35.7791    12.5691     1.1403 N.2     
 126 O126         -40.1124    10.5974     2.3412 O.3     
 127 C127          -1.0087    -9.8015    11.7963 C.2     
 128 O128          -0.4405    -8.7306    11.8332 O.2     
 129 C129          13.5497   -16.8880    21.2315 C.3     
 130 C130          12.9059   -15.6578    20.5888 C.3     
 131 C131          11.5605   -16.0488    19.9740 C.3     
 132 C132          10.9167   -14.8185    19.3314 C.3     
 133 C133           9.5713   -15.2095    18.7166 C.3     
 134 C134           8.9276   -13.9793    18.0739 C.3     
 135 C135           7.5822   -14.3702    17.4591 C.3     
 136 C136           6.9384   -13.1400    16.8165 C.3     
 137 C137           5.5930   -13.5310    16.2017 C.3     
 138 C138           4.9492   -12.3008    15.5590 C.3     
 139 C139           3.6038   -12.6917    14.9442 C.3     
 140 C140           2.9600   -11.4615    14.3015 C.3     
 141 C141           1.6146   -11.8525    13.6868 C.3     
 142 C142           0.9708   -10.6222    13.0441 C.3     
 143 C143          -0.3746   -11.0132    12.4293 C.3     
 144 H144          -2.6617   -10.7642    11.1596 H       
 145 H145          -2.5857    -7.8450    11.1642 H       
 146 H146          -2.4427    -9.4739     8.5883 H       
 147 H147          -2.8065    -7.7332     8.6640 H       
 148 H148          -0.2277   -10.3050     9.1249 H       
 149 H149           2.1816    -9.8100     9.2191 H       
 150 H150           3.6375    -7.2895     8.4995 H       
 151 H151           1.3083    -5.6304     9.4000 H       
 152 H152          -1.0990    -6.1333     9.2958 H       
 153 H153          -4.6974    -7.1405     9.6419 H       
 154 H154          -6.7798    -9.1843     9.7600 H       
 155 H155          -6.8670    -6.6687    11.4843 H       
 156 H156          -8.2560    -7.7432    11.1940 H       
 157 H157          -4.9828    -7.4084    12.8249 H       
 158 H158          -4.2068    -8.8979    14.6255 H       
 159 H159          -5.4832   -10.9297    15.1784 H       
 160 H160          -7.5361   -11.4715    13.9313 H       
 161 H161          -8.3166    -9.9776    12.1363 H       
 162 H162          -9.0344    -7.8515     9.1252 H       
 163 H163          -8.4332    -5.5722     7.4017 H       
 164 H164          -9.3954    -8.2456     6.2900 H       
 165 H165          -9.3959    -6.7147     5.3818 H       
 166 H166          -6.9437    -6.5264     5.6979 H       
 167 H167          -6.9432    -8.0573     6.6061 H       
 168 H168          -7.8304    -9.2389     4.6147 H       
 169 H169          -7.8308    -7.7080     3.7066 H       
 170 H170          -5.2343    -8.1331     4.7331 H       
 171 H171          -4.1090    -9.8203     1.8885 H       
 172 H172          -7.5185    -9.5099     2.4135 H       
 173 H173          -6.3504   -10.1257     1.3748 H       
 174 H174         -10.7473    -5.1155     6.0983 H       
 175 H175         -13.0249    -5.9792     7.7090 H       
 176 H176         -12.1030    -3.0722     7.6186 H       
 177 H177         -13.6851    -3.6118     8.2301 H       
 178 H178         -12.5494    -5.0251     9.9216 H       
 179 H179         -10.9672    -4.4855     9.3102 H       
 180 H180         -11.5502    -2.1414     9.8704 H       
 181 H181         -13.1324    -2.6810    10.4818 H       
 182 H182         -11.1170    -4.1397    11.8186 H       
 183 H183         -11.9016    -0.4224    13.0690 H       
 184 H184         -10.5047    -3.4479    14.0134 H       
 185 H185         -10.8405    -1.8833    14.5253 H       
 186 H186         -15.0800    -4.5124     6.7669 H       
 187 H187         -14.6433    -3.8057     3.9674 H       
 188 H188         -16.3792    -6.1734     4.7978 H       
 189 H189         -16.3841    -5.4361     3.1778 H       
 190 H190         -13.9155    -6.5958     4.5451 H       
 191 H191         -15.6768    -7.7274     2.3238 H       
 192 H192         -14.1610    -8.4488     2.9158 H       
 193 H193         -15.5779    -8.3495     3.9886 H       
 194 H194         -13.4617    -4.7925     2.9048 H       
 195 H195         -12.9252    -6.3716     2.2829 H       
 196 H196         -14.4410    -5.6502     1.6909 H       
 197 H197         -17.1246    -3.3569     3.0163 H       
 198 H198         -18.8985    -2.4518     5.1521 H       
 199 H199         -17.5349    -0.5094     3.2347 H       
 200 H200         -18.9156    -0.0960     4.2792 H       
 201 H201         -15.3576     0.3515     4.3282 H       
 202 H202         -14.4805     0.4163     6.7639 H       
 203 H203         -16.2179    -0.5008     8.4010 H       
 204 H204         -20.8397    -1.1042     3.8566 H       
 205 H205         -21.1828    -2.1416     1.1485 H       
 206 H206         -23.2384    -3.3707     1.6554 H       
 207 H207         -21.9106    -4.0241     2.6446 H       
 208 H208         -23.8609    -3.5841     3.9516 H       
 209 H209         -23.7105    -1.4612     0.5079 H       
 210 H210         -24.5259     0.9453     1.9471 H       
 211 H211         -24.3515     2.3904    -0.0666 H       
 212 H212         -21.6936     1.0570     0.6139 H       
 213 H213         -21.9322     2.7141     0.0093 H       
 214 H214         -22.4997     2.2703     1.6369 H       
 215 H215         -24.3419     0.6332    -1.6846 H       
 216 H216         -26.6238     1.8751     0.7970 H       
 217 H217         -27.8359     0.0298    -1.1143 H       
 218 H218         -29.0040     0.4951     1.6655 H       
 219 H219         -29.8760    -0.2770     0.3195 H       
 220 H220         -28.1267    -2.0298     0.1917 H       
 221 H221         -27.2548    -1.2578     1.5377 H       
 222 H222         -29.2215    -1.6006     3.0084 H       
 223 H223         -30.0935    -2.3726     1.6624 H       
 224 H224         -27.6365    -3.7187     2.0196 H       
 225 H225         -30.6548    -4.6119     4.4873 H       
 226 H226         -27.6534    -5.7795     3.2126 H       
 227 H227         -28.9278    -6.1416     4.2458 H       
 228 H228         -30.3667     0.9888    -1.3803 H       
 229 H229         -29.7989     3.8074    -2.0146 H       
 230 H230         -32.0401     1.9205    -2.8654 H       
 231 H231         -31.8947     3.6145    -3.3920 H       
 232 H232         -31.7800     2.1506    -5.5906 H       
 233 H233         -30.2159     1.7927    -6.0888 H       
 234 H234         -32.1082     5.1870    -1.8524 H       
 235 H235         -33.5913     4.4348     0.5480 H       
 236 H236         -31.8189     6.9158     0.4392 H       
 237 H237         -33.0492     6.6071     1.6879 H       
 238 H238         -29.7955     5.5819     0.3317 H       
 239 H239         -28.1817     4.1996     1.5740 H       
 240 H240         -28.1387     3.4727     4.4826 H       
 241 H241         -31.1355     3.4590     4.5726 H       
 242 H242         -32.7405     4.8506     3.3291 H       
 243 H243         -35.2066     6.5100     1.0260 H       
 244 H244         -35.6387     8.1417    -1.3466 H       
 245 H245         -36.8299     6.0706    -1.9652 H       
 246 H246         -39.1483     7.0601    -2.1582 H       
 247 H247         -38.6168     8.3822    -1.0915 H       
 248 H248         -37.4176     7.6380    -3.7968 H       
 249 H249         -38.3893     9.0836    -3.4304 H       
 250 H250         -36.7721     8.8926    -2.7117 H       
 251 H251         -38.4089     6.5162     0.6074 H       
 252 H252         -38.6536     5.2085    -0.5751 H       
 253 H253         -37.1594     5.2671     0.3905 H       
 254 H254         -37.4728     9.7988    -0.8757 H       
 255 H255         -37.3711    10.5001     1.9572 H       
 256 H256         -38.6901    11.8388    -0.4463 H       
 257 H257         -38.6673    12.5148     1.2002 H       
 258 H258         -36.8643    12.9958    -1.8625 H       
 259 H259         -34.4351    13.7528    -1.3809 H       
 260 H260         -33.7920    13.3149     1.0552 H       
 261 H261         -40.9805    10.2231     2.5447 H       
 262 H262          14.5082   -16.6095    21.6695 H       
 263 H263          12.8935   -17.2764    22.0103 H       
 264 H264          13.7061   -17.6546    20.4725 H       
 265 H265          12.7495   -14.8913    21.3478 H       
 266 H266          13.5621   -15.2694    19.8100 H       
 267 H267          11.7169   -16.8153    19.2150 H       
 268 H268          10.9043   -16.4372    20.7529 H       
 269 H269          10.7604   -14.0520    20.0903 H       
 270 H270          11.5730   -14.4301    18.5525 H       
 271 H271           9.7277   -15.9760    17.9576 H       
 272 H272           8.9151   -15.5979    19.4954 H       
 273 H273           8.7712   -13.2127    18.8329 H       
 274 H274           9.5838   -13.5909    17.2951 H       
 275 H275           7.7385   -15.1368    16.7001 H       
 276 H276           6.9259   -14.7586    18.2380 H       
 277 H277           6.7820   -12.3735    17.5754 H       
 278 H278           7.5946   -12.7516    16.0376 H       
 279 H279           5.7494   -14.2975    15.4427 H       
 280 H280           4.9368   -13.9194    16.9805 H       
 281 H281           4.7928   -11.5342    16.3180 H       
 282 H282           5.6054   -11.9124    14.7801 H       
 283 H283           3.7602   -13.4582    14.1852 H       
 284 H284           2.9476   -13.0801    15.7231 H       
 285 H285           2.8036   -10.6950    15.0605 H       
 286 H286           3.6162   -11.0731    13.5227 H       
 287 H287           1.7710   -12.6190    12.9278 H       
 288 H288           0.9584   -12.2409    14.4656 H       
 289 H289           0.8144    -9.8557    13.8031 H       
 290 H290           1.6270   -10.2338    12.2652 H       
 291 H291          -1.0308   -11.4016    13.2082 H       
 292 H292          -0.2182   -11.7797    11.6703 H       
@<TRIPOS>BOND
   1    1    2 2
   2    1    4 1
   3    1   15 am
   4    3  127 am
   5    3    4 1
   6    3  144 1
   7    4    5 1
   8    4  145 1
   9    5    6 1
  10    5  146 1
  11    5  147 1
  12    6    7 ar
  13    6   12 ar
  14    7    8 ar
  15    7  148 1
  16    8    9 ar
  17    8  149 1
  18    9   10 1
  19    9   11 ar
  20   10  150 1
  21   11   12 ar
  22   11  151 1
  23   12  152 1
  24   13   14 2
  25   13   16 1
  26   13   26 am
  27   15   16 1
  28   15  153 1
  29   16   17 1
  30   16  154 1
  31   17   18 1
  32   17  155 1
  33   17  156 1
  34   18   19 ar
  35   18   23 ar
  36   19   20 ar
  37   19  157 1
  38   20   21 ar
  39   20  158 1
  40   21   22 ar
  41   21  159 1
  42   22   23 ar
  43   22  160 1
  44   23  161 1
  45   24   25 2
  46   24   27 1
  47   24   37 am
  48   26   27 1
  49   26  162 1
  50   27   28 1
  51   27  163 1
  52   28   29 1
  53   28  164 1
  54   28  165 1
  55   29   30 1
  56   29  166 1
  57   29  167 1
  58   30   31 1
  59   30  168 1
  60   30  169 1
  61   31   32 1
  62   31  170 1
  63   32   33 2
  64   32   34 1
  65   33  171 1
  66   34  172 1
  67   34  173 1
  68   35   36 2
  69   35   38 1
  70   35   48 am
  71   37   38 1
  72   37  174 1
  73   38   39 1
  74   38  175 1
  75   39   40 1
  76   39  176 1
  77   39  177 1
  78   40   41 1
  79   40  178 1
  80   40  179 1
  81   41   42 1
  82   41  180 1
  83   41  181 1
  84   42   43 1
  85   42  182 1
  86   43   44 2
  87   43   45 1
  88   44  183 1
  89   45  184 1
  90   45  185 1
  91   46   47 2
  92   46   49 1
  93   46   56 am
  94   48   49 1
  95   48  186 1
  96   49   50 1
  97   49  187 1
  98   50   51 1
  99   50  188 1
 100   50  189 1
 101   51   52 1
 102   51   53 1
 103   51  190 1
 104   52  191 1
 105   52  192 1
 106   52  193 1
 107   53  194 1
 108   53  195 1
 109   53  196 1
 110   54   55 2
 111   54   57 1
 112   54   66 am
 113   56   57 1
 114   56  197 1
 115   57   58 1
 116   57  198 1
 117   58   59 1
 118   58  199 1
 119   58  200 1
 120   59   60 2
 121   59   63 1
 122   60   61 1
 123   60  201 1
 124   61   62 1
 125   61  202 1
 126   62   63 2
 127   62  203 1
 128   64   65 2
 129   64   67 1
 130   64   72 am
 131   66   67 1
 132   66  204 1
 133   67   68 1
 134   67  205 1
 135   68   69 1
 136   68  206 1
 137   68  207 1
 138   69  208 1
 139   70   71 2
 140   70   73 1
 141   70   79 am
 142   72   73 1
 143   72  209 1
 144   73   74 1
 145   73  210 1
 146   74   75 1
 147   74   76 1
 148   74  211 1
 149   75  212 1
 150   75  213 1
 151   75  214 1
 152   76  215 1
 153   77   78 2
 154   77   80 1
 155   77   90 am
 156   79   80 1
 157   79  216 1
 158   80   81 1
 159   80  217 1
 160   81   82 1
 161   81  218 1
 162   81  219 1
 163   82   83 1
 164   82  220 1
 165   82  221 1
 166   83   84 1
 167   83  222 1
 168   83  223 1
 169   84   85 1
 170   84  224 1
 171   85   86 2
 172   85   87 1
 173   86  225 1
 174   87  226 1
 175   87  227 1
 176   88   89 2
 177   88   91 1
 178   88   98 am
 179   90   91 1
 180   90  228 1
 181   91   92 1
 182   91  229 1
 183   92   93 1
 184   92  230 1
 185   92  231 1
 186   93   94 2
 187   93   95 am
 188   95  232 1
 189   95  233 1
 190   96   97 2
 191   96   99 1
 192   96  110 am
 193   98   99 1
 194   98  234 1
 195   99  100 1
 196   99  235 1
 197  100  101 1
 198  100  236 1
 199  100  237 1
 200  101  102 ar
 201  101  107 ar
 202  102  103 ar
 203  102  238 1
 204  103  104 ar
 205  103  239 1
 206  104  105 1
 207  104  106 ar
 208  105  240 1
 209  106  107 ar
 210  106  241 1
 211  107  242 1
 212  108  109 2
 213  108  111 1
 214  108  118 am
 215  110  111 1
 216  110  243 1
 217  111  112 1
 218  111  244 1
 219  112  113 1
 220  112  115 1
 221  112  245 1
 222  113  114 1
 223  113  246 1
 224  113  247 1
 225  114  248 1
 226  114  249 1
 227  114  250 1
 228  115  251 1
 229  115  252 1
 230  115  253 1
 231  116  117 2
 232  116  119 1
 233  116  126 1
 234  118  119 1
 235  118  254 1
 236  119  120 1
 237  119  255 1
 238  120  121 1
 239  120  256 1
 240  120  257 1
 241  121  122 2
 242  121  125 1
 243  122  123 1
 244  122  258 1
 245  123  124 1
 246  123  259 1
 247  124  125 2
 248  124  260 1
 249  126  261 1
 250  127  128 2
 251  127  143 1
 252  129  130 1
 253  129  262 1
 254  129  263 1
 255  129  264 1
 256  130  131 1
 257  130  265 1
 258  130  266 1
 259  131  132 1
 260  131  267 1
 261  131  268 1
 262  132  133 1
 263  132  269 1
 264  132  270 1
 265  133  134 1
 266  133  271 1
 267  133  272 1
 268  134  135 1
 269  134  273 1
 270  134  274 1
 271  135  136 1
 272  135  275 1
 273  135  276 1
 274  136  137 1
 275  136  277 1
 276  136  278 1
 277  137  138 1
 278  137  279 1
 279  137  280 1
 280  138  139 1
 281  138  281 1
 282  138  282 1
 283  139  140 1
 284  139  283 1
 285  139  284 1
 286  140  141 1
 287  140  285 1
 288  140  286 1
 289  141  142 1
 290  141  287 1
 291  141  288 1
 292  142  143 1
 293  142  289 1
 294  142  290 1
 295  143  291 1
 296  143  292 1

#	End of record

