#	Name: ASD00330007
#	Creating user name:	WinNT
#	Creation time:	15. 06. 2019 18:35

#	Modifying user name:	WinNT
#	Modification time:	15. 06. 2019 18:35

#	Program:	/corina/corina34_cracker 3.40 0067  02.08.2006

@<TRIPOS>MOLECULE
ASD00330007
  45   46    0    0    0
SMALL
NO_CHARGES


@<TRIPOS>ATOM
   1 O1            -0.0178     1.4648     0.0101 O.3     
   2 O2             0.0021    -0.0041     0.0020 O.3     
   3 P3            -1.4597    -0.6789     0.0123 P.3     
   4 O4            -2.2115    -0.2457    -1.1866 O.2     
   5 O5            -1.3108    -2.2819     0.0023 O.3     
   6 P6            -2.2947    -3.4941    -0.3909 P.3     
   7 O7            -2.6970    -3.3627    -1.8091 O.2     
   8 O8            -1.5317    -4.8956    -0.1771 O.3     
   9 P9            -1.9465    -6.4376    -0.3830 P.3     
  10 O10           -2.6419    -6.5924    -1.6802 O.2     
  11 O11           -0.6238    -7.3554    -0.3703 O.3     
  12 C12           -0.6485    -8.7599    -0.6328 C.3     
  13 C13            0.7719    -9.3209    -0.5408 C.3     
  14 O14            1.2466    -9.2301     0.8130 O.3     
  15 C15            2.0914   -10.3785     1.0414 C.3     
  16 C16            1.3408   -11.5282     0.3224 C.3     
  17 C17            0.7721   -10.8127    -0.9271 C.3     
  18 O18            1.6157   -11.0362    -2.0588 O.3     
  19 O19            2.2438   -12.5701    -0.0534 O.3     
  20 N20            2.2081   -10.6559     2.4752 N.am    
  21 C21            3.4405   -10.7622     3.0468 C.2     
  22 C22            3.5355   -11.0190     4.3729 C.2     
  23 C23            2.3529   -11.1692     5.1260 C.2     
  24 N24            1.1749   -11.0572     4.5262 N.2     
  25 C25            1.0978   -10.7991     3.2218 C.2     
  26 O26            0.0027   -10.7008     2.6934 O.2     
  27 N27            2.4202   -11.4309     6.4748 N.pl3   
  28 O28           -2.9275    -6.8933     0.8095 O.3     
  29 O29           -2.2524    -0.2218     1.3370 O.3     
  30 H30            0.8601     1.8701     0.0039 H       
  31 H31           -3.4495    -3.4531     0.4344 H       
  32 H32           -1.2833    -9.2557     0.1016 H       
  33 H33           -1.0445    -8.9356    -1.6330 H       
  34 H34            1.4340    -8.7640    -1.2038 H       
  35 H35            3.0751   -10.2256     0.5977 H       
  36 H36            0.5371   -11.9184     0.9467 H       
  37 H37           -0.2425   -11.1536    -1.1332 H       
  38 H38            1.6987   -11.9663    -2.3098 H       
  39 H39            1.8212   -13.3123    -0.5068 H       
  40 H40            4.3318   -10.6434     2.4486 H       
  41 H41            4.5021   -11.1076     4.8465 H       
  42 H42            3.2830   -11.5125     6.9105 H       
  43 H43            1.6049   -11.5338     6.9902 H       
  44 H44           -2.5365    -6.8182     1.6908 H       
  45 H45           -1.8163    -0.4730     2.1627 H       
@<TRIPOS>BOND
   1    1    2 1
   2    1   30 1
   3    2    3 1
   4    3    4 2
   5    3    5 1
   6    3   29 1
   7    5    6 1
   8    6    7 2
   9    6    8 1
  10    6   31 1
  11    8    9 1
  12    9   10 2
  13    9   11 1
  14    9   28 1
  15   11   12 1
  16   12   13 1
  17   12   32 1
  18   12   33 1
  19   13   14 1
  20   13   17 1
  21   13   34 1
  22   14   15 1
  23   15   16 1
  24   15   20 1
  25   15   35 1
  26   16   17 1
  27   16   19 1
  28   16   36 1
  29   17   18 1
  30   17   37 1
  31   18   38 1
  32   19   39 1
  33   20   21 1
  34   20   25 am
  35   21   22 2
  36   21   40 1
  37   22   23 1
  38   22   41 1
  39   23   24 2
  40   23   27 1
  41   24   25 1
  42   25   26 2
  43   27   42 1
  44   27   43 1
  45   28   44 1
  46   29   45 1

#	End of record

