#	Name: ASD01918053
#	Creating user name:	WinNT
#	Creation time:	15. 06. 2019 20:10

#	Modifying user name:	WinNT
#	Modification time:	15. 06. 2019 20:10

#	Program:	/corina/corina34_cracker 3.40 0067  02.08.2006

@<TRIPOS>MOLECULE
ASD01918053
  49   52    0    0    0
SMALL
NO_CHARGES


@<TRIPOS>ATOM
   1 C1             1.1139     5.1495    -0.6536 C.ar    
   2 C2             1.7791     3.9652    -0.3714 C.ar    
   3 C3             3.1519     3.8956    -0.5095 C.ar    
   4 C4             3.8629     5.0049    -0.9285 C.ar    
   5 C5             3.2023     6.1865    -1.2099 C.ar    
   6 C6             1.8296     6.2612    -1.0739 C.ar    
   7 O7            -0.2371     5.2189    -0.5239 O.3     
   8 C8            -0.8549     6.4702    -0.8315 C.3     
   9 C9            -2.3444     6.3575    -0.6317 C.2     
  10 N10           -2.9823     6.6053     0.4794 N.2     
  11 C11           -4.2902     6.3969     0.2772 C.2     
  12 C12           -4.4471     6.0119    -1.0039 C.2     
  13 O13           -3.2329     5.9915    -1.5691 O.3     
  14 C14           -5.4160     6.5468     1.2688 C.3     
  15 C15           -6.7414     6.6418     0.5028 C.3     
  16 N16           -6.7695     5.6076    -0.5424 N.am    
  17 C17           -5.7804     5.6910    -1.6330 C.3     
  18 C18           -7.6768     4.6116    -0.5048 C.2     
  19 O19           -7.7594     3.8295    -1.4318 O.2     
  20 C20           -8.5707     4.4704     0.6628 C.ar    
  21 C21           -9.8392     3.9066     0.5100 C.ar    
  22 C22          -10.6692     3.7772     1.6028 C.ar    
  23 C23          -10.2468     4.2057     2.8520 C.ar    
  24 C24           -8.9885     4.7665     3.0092 C.ar    
  25 C25           -8.1481     4.8949     1.9243 C.ar    
  26 F26          -11.0643     4.0765     3.9198 F       
  27 C27           -6.1781     6.8028    -2.6060 C.3     
  28 C28           -5.6988     4.3543    -2.3730 C.3     
  29 H29            1.2242     3.0985    -0.0437 H       
  30 H30            3.6702     2.9739    -0.2895 H       
  31 H31            4.9360     4.9485    -1.0358 H       
  32 H32            3.7599     7.0517    -1.5368 H       
  33 H33            1.3140     7.1841    -1.2945 H       
  34 H34           -0.4575     7.2431    -0.1737 H       
  35 H35           -0.6464     6.7331    -1.8686 H       
  36 H36           -5.4377     5.6807     1.9303 H       
  37 H37           -5.2675     7.4533     1.8556 H       
  38 H38           -7.5720     6.4866     1.1913 H       
  39 H39           -6.8268     7.6265     0.0433 H       
  40 H40          -10.1693     3.5729    -0.4627 H       
  41 H41          -11.6506     3.3417     1.4857 H       
  42 H42           -8.6645     5.0989     3.9844 H       
  43 H43           -7.1662     5.3272     2.0488 H       
  44 H44           -5.4233     6.8889    -3.3876 H       
  45 H45           -7.1417     6.5641    -3.0562 H       
  46 H46           -6.2528     7.7474    -2.0674 H       
  47 H47           -5.5981     3.5445    -1.6503 H       
  48 H48           -6.6059     4.2076    -2.9592 H       
  49 H49           -4.8341     4.3586    -3.0366 H       
@<TRIPOS>BOND
   1    1    2 ar
   2    1    6 ar
   3    1    7 1
   4    2    3 ar
   5    2   29 1
   6    3    4 ar
   7    3   30 1
   8    4    5 ar
   9    4   31 1
  10    5    6 ar
  11    5   32 1
  12    6   33 1
  13    7    8 1
  14    8    9 1
  15    8   34 1
  16    8   35 1
  17    9   10 2
  18    9   13 1
  19   10   11 1
  20   11   14 1
  21   11   12 2
  22   12   13 1
  23   12   17 1
  24   14   15 1
  25   14   36 1
  26   14   37 1
  27   15   16 1
  28   15   38 1
  29   15   39 1
  30   16   17 1
  31   16   18 am
  32   17   27 1
  33   17   28 1
  34   18   19 2
  35   18   20 1
  36   20   21 ar
  37   20   25 ar
  38   21   22 ar
  39   21   40 1
  40   22   23 ar
  41   22   41 1
  42   23   24 ar
  43   23   26 1
  44   24   25 ar
  45   24   42 1
  46   25   43 1
  47   27   44 1
  48   27   45 1
  49   27   46 1
  50   28   47 1
  51   28   48 1
  52   28   49 1

#	End of record

