#	Name: ASD01917372
#	Creating user name:	WinNT
#	Creation time:	15. 06. 2019 20:09

#	Modifying user name:	WinNT
#	Modification time:	15. 06. 2019 20:09

#	Program:	/corina/corina34_cracker 3.40 0067  02.08.2006

@<TRIPOS>MOLECULE
ASD01917372
  49   53    0    0    0
SMALL
NO_CHARGES


@<TRIPOS>ATOM
   1 C1            -0.0171     1.4096     0.0098 C.ar    
   2 C2             0.0021    -0.0041     0.0020 C.ar    
   3 C3            -1.1923    -0.7219     0.0401 C.ar    
   4 C4            -2.3832    -0.0535     0.0716 C.ar    
   5 C5            -2.4157     1.3412     0.0662 C.ar    
   6 C6            -1.2426     2.0747     0.0362 C.ar    
   7 N7             1.1593     2.0749     0.0021 N.2     
   8 C8             2.3193     1.4671    -0.0393 C.2     
   9 N9             2.4194     0.1189    -0.1561 N.am    
  10 C10            1.3094    -0.6632    -0.0612 C.2     
  11 O11            1.4002    -1.8769    -0.0293 O.2     
  12 N12           -3.6470     2.0052     0.0917 N.pl3   
  13 C13            3.5353     2.3444     0.1019 C.3     
  14 C14            4.7917     1.6913    -0.4303 C.3     
  15 C15            4.8959     0.2352    -0.0253 C.3     
  16 C16            3.6789    -0.5630    -0.4344 C.3     
  17 C17            6.1341    -0.3756    -0.6846 C.3     
  18 C18            5.0549     0.1532     1.4942 C.3     
  19 C19           -3.8370     3.3521     0.0897 C.2     
  20 N20           -5.1163     3.5972     0.1184 N.2     
  21 C21           -5.7931     2.4300     0.1399 C.2     
  22 C22           -4.8835     1.4203     0.1175 C.2     
  23 C23           -7.2669     2.2762     0.1723 C.ar    
  24 N24           -7.8019     1.0618     0.1816 N.ar    
  25 C25           -9.1074     0.8825     0.2107 C.ar    
  26 C26           -9.9715     1.9606     0.2322 C.ar    
  27 C27           -9.4538     3.2489     0.2235 C.ar    
  28 C28           -8.0799     3.4085     0.1986 C.ar    
  29 H29           -1.1762    -1.8018     0.0442 H       
  30 H30           -3.3083    -0.6100     0.1007 H       
  31 H31           -1.2760     3.1541     0.0325 H       
  32 H32            3.3641     3.2734    -0.4420 H       
  33 H33            3.6800     2.5783     1.1567 H       
  34 H34            4.7905     1.7565    -1.5184 H       
  35 H35            5.6592     2.2281    -0.0465 H       
  36 H36            3.6877    -1.5128     0.1005 H       
  37 H37            3.7375    -0.7665    -1.5036 H       
  38 H38            7.0233     0.1626    -0.3563 H       
  39 H39            6.2179    -1.4241    -0.3990 H       
  40 H40            6.0432    -0.3003    -1.7682 H       
  41 H41            4.1891     0.6083     1.9752 H       
  42 H42            5.1308    -0.8915     1.7958 H       
  43 H43            5.9582     0.6845     1.7942 H       
  44 H44           -3.0550     4.0967     0.0681 H       
  45 H45           -5.0957     0.3614     0.1194 H       
  46 H46           -9.5072    -0.1208     0.2174 H       
  47 H47          -11.0396     1.8027     0.2552 H       
  48 H48          -10.1090     4.1073     0.2399 H       
  49 H49           -7.6435     4.3964     0.1916 H       
@<TRIPOS>BOND
   1    1    2 ar
   2    1    7 1
   3    1    6 ar
   4    2    3 ar
   5    2   10 1
   6    3    4 ar
   7    3   29 1
   8    4    5 ar
   9    4   30 1
  10    5    6 ar
  11    5   12 1
  12    6   31 1
  13    7    8 2
  14    8    9 1
  15    8   13 1
  16    9   10 am
  17    9   16 1
  18   10   11 2
  19   12   19 1
  20   12   22 1
  21   13   14 1
  22   13   32 1
  23   13   33 1
  24   14   15 1
  25   14   34 1
  26   14   35 1
  27   15   16 1
  28   15   17 1
  29   15   18 1
  30   16   36 1
  31   16   37 1
  32   17   38 1
  33   17   39 1
  34   17   40 1
  35   18   41 1
  36   18   42 1
  37   18   43 1
  38   19   20 2
  39   19   44 1
  40   20   21 1
  41   21   22 2
  42   21   23 1
  43   22   45 1
  44   23   24 ar
  45   23   28 ar
  46   24   25 ar
  47   25   26 ar
  48   25   46 1
  49   26   27 ar
  50   26   47 1
  51   27   28 ar
  52   27   48 1
  53   28   49 1

#	End of record

