#	Name: ASD07930316
#	Creating user name:	WinNT
#	Creation time:	15. 06. 2019 21:12

#	Modifying user name:	WinNT
#	Modification time:	15. 06. 2019 21:12

#	Program:	/corina/corina34_cracker 3.40 0067  02.08.2006

@<TRIPOS>MOLECULE
ASD07930316
  32   33    0    0    0
SMALL
NO_CHARGES


@<TRIPOS>ATOM
   1 N1            -0.0178     1.4624     0.0101 N.pl3   
   2 C2             0.0021    -0.0041     0.0020 C.3     
   3 C3             0.7733    -0.5065     1.2304 C.3     
   4 S4             2.4363     0.2339     1.2028 S.o2    
   5 N5             2.1138     1.8519     0.9691 N.am    
   6 C6             1.1691     2.1662     0.0025 C.2     
   7 C7            -1.4107    -0.5268     0.0464 C.ar    
   8 C8            -2.4374     0.2088    -0.5145 C.ar    
   9 C9            -3.7343    -0.2712    -0.4738 C.ar    
  10 C10           -4.0027    -1.4870     0.1284 C.ar    
  11 C11           -2.9750    -2.2221     0.6892 C.ar    
  12 C12           -1.6786    -1.7448     0.6433 C.ar    
  13 N13            1.3955     3.0951    -0.8833 N.2     
  14 C14            2.7940     2.8912     1.7459 C.3     
  15 O15            3.0376     0.1712     2.4887 O.2     
  16 O16            3.1450    -0.1615     0.0363 O.2     
  17 C17            0.6911    -0.4987    -1.2714 C.3     
  18 Br18          -5.1397     0.7351    -1.2405 Br      
  19 H19           -0.8639     1.9368     0.0167 H       
  20 H20            0.2524    -0.2060     2.1395 H       
  21 H21            0.8541    -1.5929     1.1945 H       
  22 H22           -2.2274     1.1583    -0.9843 H       
  23 H23           -5.0150    -1.8619     0.1608 H       
  24 H24           -3.1844    -3.1715     1.1595 H       
  25 H25           -0.8759    -2.3194     1.0815 H       
  26 H26            2.2357     3.5798    -0.8740 H       
  27 H27            3.7043     3.1942     1.2285 H       
  28 H28            2.1349     3.7523     1.8561 H       
  29 H29            3.0490     2.5003     2.7309 H       
  30 H30            1.7134    -0.1216    -1.3012 H       
  31 H31            0.7056    -1.5886    -1.2767 H       
  32 H32            0.1453    -0.1383    -2.1433 H       
@<TRIPOS>BOND
   1    1    2 1
   2    1    6 1
   3    1   19 1
   4    2    3 1
   5    2    7 1
   6    2   17 1
   7    3    4 1
   8    3   20 1
   9    3   21 1
  10    4    5 am
  11    4   15 2
  12    4   16 2
  13    5    6 1
  14    5   14 1
  15    6   13 2
  16    7    8 ar
  17    7   12 ar
  18    8    9 ar
  19    8   22 1
  20    9   10 ar
  21    9   18 1
  22   10   11 ar
  23   10   23 1
  24   11   12 ar
  25   11   24 1
  26   12   25 1
  27   13   26 1
  28   14   27 1
  29   14   28 1
  30   14   29 1
  31   17   30 1
  32   17   31 1
  33   17   32 1

#	End of record

