#	Name: ASD06020012
#	Creating user name:	WinNT
#	Creation time:	15. 06. 2019 21:04

#	Modifying user name:	WinNT
#	Modification time:	15. 06. 2019 21:04

#	Program:	/corina/corina34_cracker 3.40 0067  02.08.2006

@<TRIPOS>MOLECULE
ASD06020012
  53   57    0    0    0
SMALL
NO_CHARGES


@<TRIPOS>ATOM
   1 C1             0.1780     1.4782    -0.1416 C.3     
   2 C2            -0.0363    -0.0295     0.0066 C.3     
   3 N3             0.6803    -0.5114     1.1950 N.3     
   4 C4             0.4263    -1.9414     1.4193 C.3     
   5 C5             1.2509    -2.4217     2.6158 C.3     
   6 N6             0.8919    -1.6335     3.8029 N.3     
   7 C7             1.1460    -0.2035     3.5787 C.3     
   8 C8             0.3213     0.2769     2.3822 C.3     
   9 C9             3.0598    -3.5519     5.8951 C.ar    
  10 N10            2.4128    -3.1137     4.8342 N.ar    
  11 C11            1.5681    -2.0883     4.9243 C.ar    
  12 C12            1.3745    -1.4794     6.1611 C.ar    
  13 C13            2.0770    -1.9728     7.2555 C.ar    
  14 N14            2.9037    -3.0026     7.0821 N.ar    
  15 N15            1.9192    -1.3999     8.5102 N.pl3   
  16 C16            3.9540    -3.5389    10.5230 C.ar    
  17 N17            3.7629    -3.1042    11.7437 N.ar    
  18 C18            2.9392    -2.0615    11.9947 C.ar    
  19 C19            2.3007    -1.4668    10.9007 C.ar    
  20 C20            2.5377    -1.9679     9.6151 C.ar    
  21 N21            3.3655    -2.9977     9.4722 N.ar    
  22 S22            1.2965    -0.1483    11.4906 S.3     
  23 C23            1.8029    -0.4905    13.1403 C.2     
  24 N24            2.6268    -1.4893    13.1560 N.2     
  25 C25            1.3532     0.2540    14.3351 C.ar    
  26 C26            1.8202    -0.1038    15.6019 C.ar    
  27 C27            1.3960     0.5969    16.7138 C.ar    
  28 C28            0.5107     1.6507    16.5751 C.ar    
  29 C29            0.0436     2.0104    15.3238 C.ar    
  30 C30            0.4635     1.3226    14.2023 C.ar    
  31 Cl31          -0.1184     1.7804    12.6321 Cl      
  32 Cl32           2.9308    -1.4263    15.7783 Cl      
  33 O33            1.5639     1.7423    -0.3685 O.3     
  34 H34           -0.4051     1.8468    -0.9856 H       
  35 H35           -0.1434     1.9822     0.7699 H       
  36 H36           -1.1009    -0.2361     0.1157 H       
  37 H37            0.3440    -0.5393    -0.8786 H       
  38 H38           -0.6335    -2.0949     1.6229 H       
  39 H39            0.7116    -2.5051     0.5311 H       
  40 H40            1.0420    -3.4752     2.8019 H       
  41 H41            2.3118    -2.2934     2.4012 H       
  42 H42            0.8606     0.3602     4.4668 H       
  43 H43            2.2057    -0.0500     3.3751 H       
  44 H44            0.5302     1.3303     2.1960 H       
  45 H45           -0.7396     0.1486     2.5967 H       
  46 H46            3.7345    -4.3886     5.7892 H       
  47 H47            0.6968    -0.6453     6.2680 H       
  48 H48            1.3766    -0.6027     8.6146 H       
  49 H49            4.6242    -4.3717    10.3691 H       
  50 H50            1.7560     0.3212    17.6939 H       
  51 H51            0.1824     2.1951    17.4482 H       
  52 H52           -0.6477     2.8341    15.2231 H       
  53 H53            1.7737     2.6805    -0.4722 H       
@<TRIPOS>BOND
   1    1    2 1
   2    1   33 1
   3    1   34 1
   4    1   35 1
   5    2    3 1
   6    2   36 1
   7    2   37 1
   8    3    4 1
   9    3    8 1
  10    4    5 1
  11    4   38 1
  12    4   39 1
  13    5    6 1
  14    5   40 1
  15    5   41 1
  16    6    7 1
  17    6   11 1
  18    7    8 1
  19    7   42 1
  20    7   43 1
  21    8   44 1
  22    8   45 1
  23    9   10 ar
  24    9   14 ar
  25    9   46 1
  26   10   11 ar
  27   11   12 ar
  28   12   13 ar
  29   12   47 1
  30   13   14 ar
  31   13   15 1
  32   15   20 1
  33   15   48 1
  34   16   17 ar
  35   16   21 ar
  36   16   49 1
  37   17   18 ar
  38   18   19 ar
  39   18   24 1
  40   19   20 ar
  41   19   22 1
  42   20   21 ar
  43   22   23 1
  44   23   24 2
  45   23   25 1
  46   25   26 ar
  47   25   30 ar
  48   26   27 ar
  49   26   32 1
  50   27   28 ar
  51   27   50 1
  52   28   29 ar
  53   28   51 1
  54   29   30 ar
  55   29   52 1
  56   30   31 1
  57   33   53 1

#	End of record

