#	Name: ASD01230375
#	Creating user name:	WinNT
#	Creation time:	15. 06. 2019 19:14

#	Modifying user name:	WinNT
#	Modification time:	15. 06. 2019 19:14

#	Program:	/corina/corina34_cracker 3.40 0067  02.08.2006

@<TRIPOS>MOLECULE
ASD01230375
  45   48    0    0    0
SMALL
NO_CHARGES


@<TRIPOS>ATOM
   1 S1             0.0818     1.7735     1.3228 S.o2    
   2 N2            -0.1033     0.2581     0.6847 N.am    
   3 C3             0.6434    -0.1830    -0.2984 C.2     
   4 N4             1.6415     0.5184    -0.9127 N.pl3   
   5 C5             1.9788     1.9088    -0.5967 C.3     
   6 C6             1.8062     2.1777     0.9008 C.3     
   7 C7             0.3592    -1.5589    -0.7588 C.2     
   8 C8             1.1304    -2.1033    -1.7626 C.2     
   9 C9             2.1613    -1.3344    -2.3202 C.2     
  10 C10            2.3910    -0.0803    -1.8948 C.2     
  11 C11           -0.7395    -2.3419    -0.1489 C.ar    
  12 C12           -0.4542    -3.4977     0.5789 C.ar    
  13 C13           -1.4798    -4.2244     1.1454 C.ar    
  14 C14           -2.7955    -3.8074     0.9921 C.ar    
  15 C15           -3.0832    -2.6576     0.2685 C.ar    
  16 C16           -2.0622    -1.9225    -0.2956 C.ar    
  17 O17           -3.8039    -4.5265     1.5511 O.3     
  18 C18           -4.3852    -5.4996     0.8014 C.ar    
  19 C19           -5.4877    -6.1856     1.2890 C.ar    
  20 C20           -6.0789    -7.1771     0.5223 C.ar    
  21 C21           -5.5663    -7.4815    -0.7321 C.ar    
  22 C22           -4.4671    -6.7966    -1.2154 C.ar    
  23 C23           -3.8797    -5.8035    -0.4545 C.ar    
  24 O24           -7.1591    -7.8513     0.9976 O.3     
  25 C25           -7.6323    -7.4859     2.2956 C.3     
  26 Cl26          -6.3061    -8.7234    -1.6935 Cl      
  27 O27           -0.8216     2.5850     0.5848 O.2     
  28 O28           -0.0652     1.5917     2.7244 O.2     
  29 H29            3.0139     2.1007    -0.8794 H       
  30 H30            1.3239     2.5743    -1.1592 H       
  31 H31            2.0047     3.2279     1.1150 H       
  32 H32            2.4863     1.5461     1.4723 H       
  33 H33            0.9437    -3.1072    -2.1142 H       
  34 H34            2.7786    -1.7548    -3.1003 H       
  35 H35            3.1979     0.4794    -2.3442 H       
  36 H36            0.5688    -3.8230     0.6979 H       
  37 H37           -1.2597    -5.1191     1.7088 H       
  38 H38           -4.1076    -2.3363     0.1513 H       
  39 H39           -2.2863    -1.0258    -0.8542 H       
  40 H40           -5.8846    -5.9476     2.2648 H       
  41 H41           -4.0695    -7.0348    -2.1909 H       
  42 H42           -3.0238    -5.2666    -0.8360 H       
  43 H43           -7.9203    -6.4347     2.2947 H       
  44 H44           -8.4958    -8.0990     2.5534 H       
  45 H45           -6.8416    -7.6454     3.0287 H       
@<TRIPOS>BOND
   1    1    2 am
   2    1    6 1
   3    1   27 2
   4    1   28 2
   5    2    3 2
   6    3    4 1
   7    3    7 1
   8    4    5 1
   9    4   10 1
  10    5    6 1
  11    5   29 1
  12    5   30 1
  13    6   31 1
  14    6   32 1
  15    7    8 2
  16    7   11 1
  17    8    9 1
  18    8   33 1
  19    9   10 2
  20    9   34 1
  21   10   35 1
  22   11   12 ar
  23   11   16 ar
  24   12   13 ar
  25   12   36 1
  26   13   14 ar
  27   13   37 1
  28   14   15 ar
  29   14   17 1
  30   15   16 ar
  31   15   38 1
  32   16   39 1
  33   17   18 1
  34   18   19 ar
  35   18   23 ar
  36   19   20 ar
  37   19   40 1
  38   20   21 ar
  39   20   24 1
  40   21   22 ar
  41   21   26 1
  42   22   23 ar
  43   22   41 1
  44   23   42 1
  45   24   25 1
  46   25   43 1
  47   25   44 1
  48   25   45 1

#	End of record

