#	Name: ASD01812903
#	Creating user name:	WinNT
#	Creation time:	15. 06. 2019 19:29

#	Modifying user name:	WinNT
#	Modification time:	15. 06. 2019 19:29

#	Program:	/corina/corina34_cracker 3.40 0067  02.08.2006

@<TRIPOS>MOLECULE
ASD01812903
  53   57    0    0    0
SMALL
NO_CHARGES


@<TRIPOS>ATOM
   1 N1             0.0027     1.3184    -0.2223 N.ar    
   2 C2             0.0319     0.0057    -0.3459 C.ar    
   3 C3             1.2340    -0.6843    -0.3686 C.ar    
   4 C4             2.4113     0.0205    -0.2597 C.ar    
   5 C5             2.3614     1.4132    -0.1293 C.ar    
   6 C6             1.1073     2.0395    -0.1145 C.ar    
   7 C7             3.8682    -0.3580    -0.2438 C.3     
   8 N8             4.6152     0.8976    -0.0979 N.am    
   9 C9             3.7395     1.9163    -0.0324 C.2     
  10 C10            6.0736     1.0205    -0.0343 C.3     
  11 C11            6.6241     1.1969    -1.4260 C.ar    
  12 O12            1.0259     3.3855     0.0100 O.3     
  13 O13            4.0442     3.0871     0.0890 O.2     
  14 C14            6.7712     2.4663    -1.9541 C.ar    
  15 C15            7.2758     2.6311    -3.2293 C.ar    
  16 C16            7.6355     1.5207    -3.9808 C.ar    
  17 C17            7.4867     0.2475    -3.4480 C.ar    
  18 C18            6.9864     0.0892    -2.1703 C.ar    
  19 C19           -0.2021     3.9617    -0.0802 C.ar    
  20 C20           -1.0089     4.0614     1.0469 C.ar    
  21 C21           -2.2575     4.6481     0.9512 C.ar    
  22 C22           -0.6498     4.4560    -1.2957 C.ar    
  23 F23           -0.5742     3.5855     2.2342 F       
  24 N24            8.1477     1.6848    -5.2759 N.pl3   
  25 C25           -2.7025     5.1344    -0.2646 C.ar    
  26 C26           -1.8987     5.0414    -1.3852 C.ar    
  27 C27           -4.0638     5.7728    -0.3664 C.3     
  28 C28            8.5372     0.6863    -6.1309 C.2     
  29 C29            8.3462     2.8628    -5.9225 C.2     
  30 N30            8.8348     2.6100    -7.1060 N.2     
  31 C31            8.9572     1.2835    -7.2623 C.2     
  32 C32            9.4800     0.5828    -8.4898 C.3     
  33 H33           -0.8959    -0.5406    -0.4305 H       
  34 H34            1.2466    -1.7594    -0.4699 H       
  35 H35            4.0750    -1.0173     0.5993 H       
  36 H36            4.1383    -0.8484    -1.1790 H       
  37 H37            6.3392     1.8853     0.5738 H       
  38 H38            6.4950     0.1196     0.4116 H       
  39 H39            6.4909     3.3298    -1.3691 H       
  40 H40            7.3902     3.6228    -3.6414 H       
  41 H41            7.7656    -0.6182    -4.0303 H       
  42 H42            6.8745    -0.9009    -1.7535 H       
  43 H43           -2.8856     4.7263     1.8263 H       
  44 H44           -0.0228     4.3841    -2.1721 H       
  45 H45           -2.2489     5.4224    -2.3332 H       
  46 H46           -4.8047     5.0117    -0.6111 H       
  47 H47           -4.3200     6.2362     0.5863 H       
  48 H48           -4.0513     6.5323    -1.1482 H       
  49 H49            8.5122    -0.3754    -5.9345 H       
  50 H50            8.1350     3.8441    -5.5239 H       
  51 H51            8.6521     0.3665    -9.1649 H       
  52 H52           10.2023     1.2244    -8.9945 H       
  53 H53            9.9637    -0.3493    -8.1978 H       
@<TRIPOS>BOND
   1    1    2 ar
   2    1    6 ar
   3    2    3 ar
   4    2   33 1
   5    3    4 ar
   6    3   34 1
   7    4    7 1
   8    4    5 ar
   9    5    6 ar
  10    5    9 1
  11    6   12 1
  12    7    8 1
  13    7   35 1
  14    7   36 1
  15    8    9 am
  16    8   10 1
  17    9   13 2
  18   10   11 1
  19   10   37 1
  20   10   38 1
  21   11   14 ar
  22   11   18 ar
  23   12   19 1
  24   14   15 ar
  25   14   39 1
  26   15   16 ar
  27   15   40 1
  28   16   17 ar
  29   16   24 1
  30   17   18 ar
  31   17   41 1
  32   18   42 1
  33   19   20 ar
  34   19   22 ar
  35   20   23 1
  36   20   21 ar
  37   21   25 ar
  38   21   43 1
  39   22   26 ar
  40   22   44 1
  41   24   29 1
  42   24   28 1
  43   25   26 ar
  44   25   27 1
  45   26   45 1
  46   27   46 1
  47   27   47 1
  48   27   48 1
  49   28   31 2
  50   28   49 1
  51   29   30 2
  52   29   50 1
  53   30   31 1
  54   31   32 1
  55   32   51 1
  56   32   52 1
  57   32   53 1

#	End of record

