#	Name: ASD02500262
#	Creating user name:	WinNT
#	Creation time:	15. 06. 2019 20:22

#	Modifying user name:	WinNT
#	Modification time:	15. 06. 2019 20:22

#	Program:	/corina/corina34_cracker 3.40 0067  02.08.2006

@<TRIPOS>MOLECULE
ASD02500262
  60   64    0    0    0
SMALL
NO_CHARGES


@<TRIPOS>ATOM
   1 N1            -2.8897     5.2679     0.8583 N.ar    
   2 C2            -4.0637     5.8025     1.0909 C.ar    
   3 C3            -4.8285     5.4395     2.1976 C.ar    
   4 C4            -4.3581     4.5033     3.0737 C.ar    
   5 C5            -3.0971     3.9310     2.8206 C.ar    
   6 C6            -2.5483     2.9630     3.6765 C.ar    
   7 C7            -1.3251     2.4336     3.3973 C.ar    
   8 C8            -0.6100     2.8402     2.2729 C.ar    
   9 C9            -1.1120     3.7763     1.4219 C.ar    
  10 C10           -2.3715     4.3461     1.6762 C.ar    
  11 S11           -0.1861     4.2727     0.0074 S.o2    
  12 O12           -0.1908     5.6937     0.0032 O.2     
  13 O13            1.0061     3.4996     0.0167 O.2     
  14 N14           -1.0408     3.7982    -1.3292 N.am    
  15 C15           -1.2549     2.4461    -1.5738 C.ar    
  16 C16           -2.5237     1.9975    -1.9202 C.ar    
  17 C17           -2.7367     0.6525    -2.1639 C.ar    
  18 C18           -1.6666    -0.2506    -2.0591 C.ar    
  19 C19           -0.3956     0.2166    -1.7095 C.ar    
  20 C20           -0.1951     1.5466    -1.4763 C.ar    
  21 C21           -1.8819    -1.6842    -2.3158 C.2     
  22 O22           -2.7419    -2.2891    -1.7043 O.2     
  23 N23           -1.1261    -2.3263    -3.2285 N.am    
  24 C24           -1.3983    -3.7292    -3.5713 C.3     
  25 C25           -1.6012    -3.8326    -5.0881 C.3     
  26 N26           -0.4905    -3.1422    -5.7585 N.am    
  27 C27           -0.2183    -1.7393    -5.4157 C.3     
  28 C28           -0.0189    -1.6343    -3.9030 C.3     
  29 C29            0.2653    -3.7843    -6.6712 C.2     
  30 O30            1.1333    -3.1822    -7.2741 O.2     
  31 S31            0.2522    -7.5563    -7.7841 S.3     
  32 C32           -1.0424    -7.1449    -6.7491 C.2     
  33 N33           -0.9821    -5.9022    -6.4222 N.2     
  34 C34            0.0402    -5.2149    -6.9384 C.2     
  35 C35            0.8493    -5.9555    -7.7290 C.2     
  36 O36           -3.9731     0.2082    -2.5020 O.3     
  37 C37           -5.0123     1.1852    -2.5887 C.3     
  38 H38           -4.4484     6.5442     0.4066 H       
  39 H39           -5.7921     5.8984     2.3627 H       
  40 H40           -4.9374     4.2104     3.9369 H       
  41 H41           -3.0928     2.6404     4.5516 H       
  42 H42           -0.9037     1.6890     4.0564 H       
  43 H43            0.3585     2.4058     2.0736 H       
  44 H44           -1.3921     4.4634    -1.9416 H       
  45 H45           -3.3423     2.6977    -1.9986 H       
  46 H46            0.4296    -0.4754    -1.6281 H       
  47 H47            0.7893     1.9031    -1.2110 H       
  48 H48           -0.5534    -4.3495    -3.2722 H       
  49 H49           -2.3001    -4.0630    -3.0580 H       
  50 H50           -1.6127    -4.8813    -5.3850 H       
  51 H51           -2.5446    -3.3614    -5.3639 H       
  52 H52            0.6835    -1.4056    -5.9289 H       
  53 H53           -1.0632    -1.1190    -5.7148 H       
  54 H54           -0.0100    -0.5848    -3.6087 H       
  55 H55            0.9265    -2.1019    -3.6281 H       
  56 H56           -1.8059    -7.8323    -6.4160 H       
  57 H57            1.7288    -5.5948    -8.2417 H       
  58 H58           -5.1314     1.6757    -1.6226 H       
  59 H59           -4.7513     1.9273    -3.3432 H       
  60 H60           -5.9469     0.6980    -2.8665 H       
@<TRIPOS>BOND
   1    1    2 ar
   2    1   10 ar
   3    2    3 ar
   4    2   38 1
   5    3    4 ar
   6    3   39 1
   7    4    5 ar
   8    4   40 1
   9    5    6 ar
  10    5   10 ar
  11    6    7 ar
  12    6   41 1
  13    7    8 ar
  14    7   42 1
  15    8    9 ar
  16    8   43 1
  17    9   10 ar
  18    9   11 1
  19   11   12 2
  20   11   13 2
  21   11   14 am
  22   14   15 1
  23   14   44 1
  24   15   16 ar
  25   15   20 ar
  26   16   17 ar
  27   16   45 1
  28   17   18 ar
  29   17   36 1
  30   18   19 ar
  31   18   21 1
  32   19   20 ar
  33   19   46 1
  34   20   47 1
  35   21   22 2
  36   21   23 am
  37   23   24 1
  38   23   28 1
  39   24   25 1
  40   24   48 1
  41   24   49 1
  42   25   26 1
  43   25   50 1
  44   25   51 1
  45   26   27 1
  46   26   29 am
  47   27   28 1
  48   27   52 1
  49   27   53 1
  50   28   54 1
  51   28   55 1
  52   29   30 2
  53   29   34 1
  54   31   32 1
  55   31   35 1
  56   32   33 2
  57   32   56 1
  58   33   34 1
  59   34   35 2
  60   35   57 1
  61   36   37 1
  62   37   58 1
  63   37   59 1
  64   37   60 1

#	End of record

