#	Name: ASD01813683
#	Creating user name:	WinNT
#	Creation time:	15. 06. 2019 19:30

#	Modifying user name:	WinNT
#	Modification time:	15. 06. 2019 19:30

#	Program:	/corina/corina34_cracker 3.40 0067  02.08.2006

@<TRIPOS>MOLECULE
ASD01813683
  46   50    0    0    0
SMALL
NO_CHARGES


@<TRIPOS>ATOM
   1 C1             0.0981     1.4750     0.3523 C.ar    
   2 C2             0.0799     0.0888     0.3443 C.ar    
   3 C3             1.2500    -0.6315     0.2154 C.ar    
   4 C4             2.4679     0.0344     0.0909 C.ar    
   5 C5             2.4849     1.4396     0.0987 C.ar    
   6 C6             1.2927     2.1561     0.2303 C.ar    
   7 N7             3.6439    -0.6744    -0.0375 N.pl3   
   8 C8             4.8384    -0.0818    -0.1590 C.2     
   9 C9             4.9809     1.2911    -0.1642 C.2     
  10 C10            3.7793     2.1315    -0.0337 C.2     
  11 O11            3.8520     3.3479    -0.0333 O.2     
  12 C12            6.3099     1.9037    -0.2987 C.2     
  13 O13            6.4362     3.2459    -0.3025 O.3     
  14 O14            7.2954     1.2002    -0.4066 O.2     
  15 C15            3.5837    -2.1382    -0.0406 C.3     
  16 C16            3.4403    -2.6321    -1.4571 C.ar    
  17 C17            4.5542    -2.7797    -2.2622 C.ar    
  18 N18            4.4409    -3.2115    -3.5033 N.ar    
  19 C19            3.2716    -3.5190    -4.0276 C.ar    
  20 C20            2.1067    -3.3969    -3.2814 C.ar    
  21 C21            2.1910    -2.9488    -1.9657 C.ar    
  22 F22            1.2148    -1.9820     0.2103 F       
  23 F23            1.3087     3.5070     0.2374 F       
  24 N24            0.8656    -3.7244    -3.8425 N.pl3   
  25 N25           -0.3726    -3.5442    -3.2154 N.2     
  26 C26           -1.3294    -3.9585    -4.0269 C.ar    
  27 C27           -0.6702    -4.4355    -5.2531 C.ar    
  28 C28            0.6870    -4.2525    -5.0641 C.2     
  29 C29           -2.7368    -4.0241    -3.9484 C.ar    
  30 C30           -3.4439    -4.5205    -4.9945 C.ar    
  31 C31           -2.8177    -4.9736    -6.1578 C.ar    
  32 C32           -1.4691    -4.9392    -6.3017 C.ar    
  33 H33           -0.8265     2.0245     0.4498 H       
  34 H34           -0.8607    -0.4334     0.4403 H       
  35 H35            5.7197    -0.6985    -0.2558 H       
  36 H36            7.3305     3.6024    -0.3934 H       
  37 H37            4.4990    -2.5404     0.3935 H       
  38 H38            2.7272    -2.4679     0.5476 H       
  39 H39            5.5308    -2.5378    -1.8696 H       
  40 H40            3.2187    -3.8691    -5.0479 H       
  41 H41            1.3037    -2.8435    -1.3591 H       
  42 H42            1.4660    -4.4972    -5.7710 H       
  43 H43           -3.2480    -3.6816    -3.0609 H       
  44 H44           -4.5207    -4.5669    -4.9256 H       
  45 H45           -3.4230    -5.3608    -6.9641 H       
  46 H46           -1.0101    -5.2957    -7.2120 H       
@<TRIPOS>BOND
   1    1    2 ar
   2    1    6 ar
   3    1   33 1
   4    2    3 ar
   5    2   34 1
   6    3   22 1
   7    3    4 ar
   8    4    5 ar
   9    4    7 1
  10    5    6 ar
  11    5   10 1
  12    6   23 1
  13    7    8 1
  14    7   15 1
  15    8    9 2
  16    8   35 1
  17    9   10 1
  18    9   12 1
  19   10   11 2
  20   12   13 1
  21   12   14 2
  22   13   36 1
  23   15   16 1
  24   15   37 1
  25   15   38 1
  26   16   17 ar
  27   16   21 ar
  28   17   18 ar
  29   17   39 1
  30   18   19 ar
  31   19   20 ar
  32   19   40 1
  33   20   21 ar
  34   20   24 1
  35   21   41 1
  36   24   25 1
  37   24   28 1
  38   25   26 2
  39   26   27 ar
  40   26   29 ar
  41   27   28 2
  42   27   32 ar
  43   28   42 1
  44   29   30 ar
  45   29   43 1
  46   30   31 ar
  47   30   44 1
  48   31   32 ar
  49   31   45 1
  50   32   46 1

#	End of record

