#	Name: ASD01903088
#	Creating user name:	WinNT
#	Creation time:	15. 06. 2019 19:54

#	Modifying user name:	WinNT
#	Modification time:	15. 06. 2019 19:54

#	Program:	/corina/corina34_cracker 3.40 0067  02.08.2006

@<TRIPOS>MOLECULE
ASD01903088
  28   30    0    0    0
SMALL
NO_CHARGES


@<TRIPOS>ATOM
   1 C1            -0.0158     1.3105     0.0092 C.2     
   2 N2             0.0021    -0.0041     0.0020 N.2     
   3 C3            -1.1679    -0.6148     0.0107 C.2     
   4 N4            -2.2411     0.1345     0.0256 N.2     
   5 S5            -1.6838     1.7397     0.0351 S.3     
   6 C6            -1.2632    -2.0960     0.0032 C.2     
   7 N7             1.0724     2.1660     0.0035 N.pl3   
   8 C8            -2.4134    -2.8301     0.0109 C.2     
   9 N9            -2.0660    -4.1326    -0.0001 N.pl3   
  10 N10           -0.6682    -4.2127    -0.0150 N.2     
  11 C11           -0.1828    -2.9996    -0.0193 C.2     
  12 C12            0.8743     3.5461     0.0128 C.ar    
  13 N13           -0.3565     4.0313     0.0271 N.ar    
  14 C14           -0.5893     5.3306     0.0367 C.ar    
  15 C15            0.4535     6.2378     0.0321 C.ar    
  16 C16            1.7627     5.7695     0.0171 C.ar    
  17 C17            1.9740     4.4010     0.0126 C.ar    
  18 C18           -3.8178    -2.2838     0.0290 C.3     
  19 F19            3.2294     3.9019    -0.0018 F       
  20 F20            0.2035     7.5654     0.0416 F       
  21 H21            1.9729     1.8054    -0.0071 H       
  22 H22           -2.6787    -4.8846     0.0025 H       
  23 H23            0.8644    -2.7357    -0.0305 H       
  24 H24           -1.6078     5.6895     0.0480 H       
  25 H25            2.5954     6.4572     0.0129 H       
  26 H26           -4.1672    -2.1459    -0.9942 H       
  27 H27           -4.4736    -2.9846     0.5456 H       
  28 H28           -3.8282    -1.3258     0.5487 H       
@<TRIPOS>BOND
   1    1    2 2
   2    1    7 1
   3    1    5 1
   4    2    3 1
   5    3    4 2
   6    3    6 1
   7    4    5 1
   8    6    8 2
   9    6   11 1
  10    7   12 1
  11    7   21 1
  12    8    9 1
  13    8   18 1
  14    9   10 1
  15    9   22 1
  16   10   11 2
  17   11   23 1
  18   12   13 ar
  19   12   17 ar
  20   13   14 ar
  21   14   15 ar
  22   14   24 1
  23   15   16 ar
  24   15   20 1
  25   16   17 ar
  26   16   25 1
  27   17   19 1
  28   18   26 1
  29   18   27 1
  30   18   28 1

#	End of record

