#	Name: ASD03240295
#	Creating user name:	WinNT
#	Creation time:	15. 06. 2019 20:34

#	Modifying user name:	WinNT
#	Modification time:	15. 06. 2019 20:34

#	Program:	/corina/corina34_cracker 3.40 0067  02.08.2006

@<TRIPOS>MOLECULE
ASD03240295
  87   91    0    0    0
SMALL
NO_CHARGES


@<TRIPOS>ATOM
   1 C1             0.1005     1.7331     1.5343 C.2     
   2 N2             0.1769     0.5300     2.1953 N.pl3   
   3 O3            -3.4787     3.4892     1.2617 O.2     
   4 C4            -2.6157     4.1469     0.7198 C.2     
   5 C5            -1.1903     3.6580     0.7101 C.3     
   6 N6            -1.1088     2.3760     1.4144 N.pl3   
   7 N7             1.1755     2.2669     1.0261 N.2     
   8 N8            -2.9316     5.3149     0.1263 N.am    
   9 C9            -4.2634     5.7128     0.0368 C.ar    
  10 C10           -4.5956     7.0723     0.1199 C.ar    
  11 C11           -5.9242     7.4652     0.0303 C.ar    
  12 C12           -6.9214     6.5042    -0.1422 C.ar    
  13 C13           -6.5806     5.1508    -0.2240 C.ar    
  14 C14           -5.2616     4.7628    -0.1406 C.ar    
  15 C15           -8.3354     6.9166    -0.2376 C.2     
  16 N16           -9.2983     5.9883    -0.4041 N.am    
  17 O17           -8.6316     8.0938    -0.1660 O.2     
  18 C18          -10.6471     6.3647    -0.3719 C.ar    
  19 C19          -11.5959     5.6064    -1.0450 C.ar    
  20 C20          -11.0363     7.4931     0.3380 C.ar    
  21 C21          -12.3657     7.8642     0.3698 C.ar    
  22 C22          -13.3139     7.1090    -0.3081 C.ar    
  23 C23          -12.9254     5.9773    -1.0133 C.ar    
  24 N24          -14.6611     7.4847    -0.2755 N.pl3   
  25 C25          -15.6612     6.6880    -0.9906 C.3     
  26 C26          -15.0717     8.6747     0.4737 C.3     
  27 C27           -3.5306     8.0882     0.3037 C.ar    
  28 C28           -3.4781     9.2049    -0.5284 C.ar    
  29 C29           -2.4851    10.1472    -0.3525 C.ar    
  30 C30           -1.5432     9.9848     0.6474 C.ar    
  31 C31           -1.5902     8.8782     1.4759 C.ar    
  32 C32           -2.5821     7.9325     1.3129 C.ar    
  33 C33          -15.0183     9.8801    -0.4292 C.ar    
  34 C34          -16.1984     5.6176    -0.0759 C.ar    
  35 C35          -16.1312    10.2426    -1.1646 C.ar    
  36 C36          -16.0822    11.3482    -1.9930 C.ar    
  37 C37          -14.9204    12.0915    -2.0855 C.ar    
  38 C38          -13.8077    11.7295    -1.3494 C.ar    
  39 C39          -13.8581    10.6264    -0.5178 C.ar    
  40 C40          -17.3041     5.8737     0.7132 C.ar    
  41 C41          -17.7968     4.8919     1.5523 C.ar    
  42 C42          -17.1841     3.6537     1.6019 C.ar    
  43 C43          -16.0789     3.3973     0.8121 C.ar    
  44 C44          -15.5888     4.3777    -0.0302 C.ar    
  45 C45           -0.4614    11.0172     0.8344 C.3     
  46 C46           -0.5608    11.6109     2.2410 C.3     
  47 C47            0.9081    10.3593     0.6541 C.3     
  48 H48            1.0308     0.0784     2.2834 H       
  49 H49           -0.6231     0.1328     2.5735 H       
  50 H50           -0.8576     3.5285    -0.3198 H       
  51 H51           -0.5525     4.3877     1.2089 H       
  52 H52           -1.9082     1.9807     1.7961 H       
  53 H53            1.1216     3.1157     0.5597 H       
  54 H54           -2.2315     5.8785    -0.2385 H       
  55 H55           -6.1852     8.5112     0.0941 H       
  56 H56           -7.3531     4.4080    -0.3575 H       
  57 H57           -5.0033     3.7160    -0.2044 H       
  58 H58           -9.0572     5.0596    -0.5463 H       
  59 H59          -11.2937     4.7266    -1.5937 H       
  60 H60          -10.2990     8.0801     0.8654 H       
  61 H61          -12.6683     8.7415     0.9222 H       
  62 H62          -13.6625     5.3901    -1.5408 H       
  63 H63          -16.4778     7.3342    -1.3126 H       
  64 H64          -15.2001     6.2234    -1.8622 H       
  65 H65          -16.0894     8.5401     0.8402 H       
  66 H66          -14.3982     8.8230     1.3179 H       
  67 H67           -4.2128     9.3325    -1.3097 H       
  68 H68           -2.4433    11.0128    -0.9970 H       
  69 H69           -0.8520     8.7563     2.2548 H       
  70 H70           -2.6179     7.0688     1.9603 H       
  71 H71          -17.0389     9.6619    -1.0923 H       
  72 H72          -16.9515    11.6311    -2.5681 H       
  73 H73          -14.8818    12.9549    -2.7332 H       
  74 H74          -12.8999    12.3100    -1.4220 H       
  75 H75          -12.9888    10.3436     0.0573 H       
  76 H76          -17.7828     6.8411     0.6745 H       
  77 H77          -18.6603     5.0922     2.1693 H       
  78 H78          -17.5686     2.8868     2.2580 H       
  79 H79          -15.6000     2.4300     0.8511 H       
  80 H80          -14.7254     4.1774    -0.6472 H       
  81 H81           -0.5839    11.8097     0.0961 H       
  82 H82           -0.4383    10.8185     2.9794 H       
  83 H83            0.2216    12.3576     2.3763 H       
  84 H84           -1.5365    12.0796     2.3695 H       
  85 H85            0.9788     9.9364    -0.3480 H       
  86 H86            1.6905    11.1061     0.7894 H       
  87 H87            1.0305     9.5669     1.3924 H       
@<TRIPOS>BOND
   1    1    2 1
   2    1    7 2
   3    1    6 1
   4    2   48 1
   5    2   49 1
   6    3    4 2
   7    4    5 1
   8    4    8 am
   9    5    6 1
  10    5   50 1
  11    5   51 1
  12    6   52 1
  13    7   53 1
  14    8    9 1
  15    8   54 1
  16    9   10 ar
  17    9   14 ar
  18   10   11 ar
  19   10   27 1
  20   11   12 ar
  21   11   55 1
  22   12   13 ar
  23   12   15 1
  24   13   14 ar
  25   13   56 1
  26   14   57 1
  27   15   16 am
  28   15   17 2
  29   16   18 1
  30   16   58 1
  31   18   19 ar
  32   18   20 ar
  33   19   23 ar
  34   19   59 1
  35   20   21 ar
  36   20   60 1
  37   21   22 ar
  38   21   61 1
  39   22   23 ar
  40   22   24 1
  41   23   62 1
  42   24   25 1
  43   24   26 1
  44   25   34 1
  45   25   63 1
  46   25   64 1
  47   26   33 1
  48   26   65 1
  49   26   66 1
  50   27   28 ar
  51   27   32 ar
  52   28   29 ar
  53   28   67 1
  54   29   30 ar
  55   29   68 1
  56   30   31 ar
  57   30   45 1
  58   31   32 ar
  59   31   69 1
  60   32   70 1
  61   33   35 ar
  62   33   39 ar
  63   34   40 ar
  64   34   44 ar
  65   35   36 ar
  66   35   71 1
  67   36   37 ar
  68   36   72 1
  69   37   38 ar
  70   37   73 1
  71   38   39 ar
  72   38   74 1
  73   39   75 1
  74   40   41 ar
  75   40   76 1
  76   41   42 ar
  77   41   77 1
  78   42   43 ar
  79   42   78 1
  80   43   44 ar
  81   43   79 1
  82   44   80 1
  83   45   46 1
  84   45   47 1
  85   45   81 1
  86   46   82 1
  87   46   83 1
  88   46   84 1
  89   47   85 1
  90   47   86 1
  91   47   87 1

#	End of record

