#	Name: ASD03091005
#	Creating user name:	WinNT
#	Creation time:	15. 06. 2019 20:29

#	Modifying user name:	WinNT
#	Modification time:	15. 06. 2019 20:29

#	Program:	/corina/corina34_cracker 3.40 0067  02.08.2006

@<TRIPOS>MOLECULE
ASD03091005
  42   45    0    0    0
SMALL
NO_CHARGES


@<TRIPOS>ATOM
   1 C1            -0.0179     1.4773     0.0800 C.2     
   2 C2             0.0022    -0.0037     0.0999 C.ar    
   3 C3             1.2178    -0.6874     0.1068 C.ar    
   4 C4             1.2301    -2.0670     0.1258 C.ar    
   5 C5             0.0398    -2.7720     0.1380 C.ar    
   6 C6            -1.1692    -2.0995     0.1308 C.ar    
   7 C7            -1.1945    -0.7200     0.1176 C.ar    
   8 O8             1.0296     2.1012     0.0697 O.2     
   9 N9            -1.1827     2.1288     0.0679 N.2     
  10 S10            0.1585     4.5178     0.0393 S.3     
  11 C11           -1.2008     3.4605     0.0500 C.2     
  12 N12           -2.2936     4.2638     0.0361 N.pl3   
  13 C13           -2.0721     5.6058     0.0183 C.2     
  14 C14           -0.8060     6.0042     0.0163 C.2     
  15 O15           -7.4129     2.1545     0.0376 O.3     
  16 C16           -8.4679     2.9898     0.5265 C.3     
  17 C17           -8.3115     4.3800    -0.1045 C.3     
  18 O18           -7.0325     4.9017     0.2723 O.3     
  19 C19           -5.9698     4.0591     0.1563 C.ar    
  20 C20           -6.1593     2.6864     0.0416 C.ar    
  21 C21           -4.6861     4.5817     0.1539 C.ar    
  22 C22           -3.5920     3.7351     0.0393 C.ar    
  23 C23           -3.7842     2.3650    -0.0724 C.ar    
  24 C24           -5.0636     1.8437    -0.0714 C.ar    
  25 F25           -8.3872     4.2771    -1.4976 F       
  26 F26           -9.3226     5.2267     0.3625 F       
  27 F27           -9.7057     2.4453     0.1676 F       
  28 F28           -8.3824     3.0914     1.9192 F       
  29 C29           -0.2961     7.4222    -0.0017 C.3     
  30 O30            0.3981     7.6943     1.2174 O.3     
  31 H31            2.1477    -0.1381     0.0969 H       
  32 H32            2.1707    -2.5976     0.1308 H       
  33 H33            0.0544    -3.8518     0.1529 H       
  34 H34           -2.0952    -2.6554     0.1401 H       
  35 H35           -2.1389    -0.1961     0.1166 H       
  36 H36           -2.8878     6.3135     0.0061 H       
  37 H37           -4.5371     5.6478     0.2407 H       
  38 H38           -2.9330     1.7060    -0.1606 H       
  39 H39           -5.2109     0.7774    -0.1586 H       
  40 H40            0.3835     7.5532    -0.8438 H       
  41 H41           -1.1363     8.1092    -0.1025 H       
  42 H42            0.7545     8.5913     1.2753 H       
@<TRIPOS>BOND
   1    1    2 1
   2    1    8 2
   3    1    9 1
   4    2    3 ar
   5    2    7 ar
   6    3    4 ar
   7    3   31 1
   8    4    5 ar
   9    4   32 1
  10    5    6 ar
  11    5   33 1
  12    6    7 ar
  13    6   34 1
  14    7   35 1
  15    9   11 2
  16   10   11 1
  17   10   14 1
  18   11   12 1
  19   12   13 1
  20   12   22 1
  21   13   14 2
  22   13   36 1
  23   14   29 1
  24   15   16 1
  25   15   20 1
  26   16   17 1
  27   16   27 1
  28   16   28 1
  29   17   18 1
  30   17   25 1
  31   17   26 1
  32   18   19 1
  33   19   20 ar
  34   19   21 ar
  35   20   24 ar
  36   21   22 ar
  37   21   37 1
  38   22   23 ar
  39   23   24 ar
  40   23   38 1
  41   24   39 1
  42   29   30 1
  43   29   40 1
  44   29   41 1
  45   30   42 1

#	End of record

