#	Name: ASD09740459
#	Creating user name:	WinNT
#	Creation time:	15. 06. 2019 21:23

#	Modifying user name:	WinNT
#	Modification time:	15. 06. 2019 21:23

#	Program:	/corina/corina34_cracker 3.40 0067  02.08.2006

@<TRIPOS>MOLECULE
ASD09740459
  73   77    0    0    0
SMALL
NO_CHARGES


@<TRIPOS>ATOM
   1 N1            -1.1538     0.6730    -0.3441 N.2     
   2 C2            -1.0229    -0.5977    -0.0551 C.2     
   3 C3            -0.1835     1.4679     0.0111 C.2     
   4 S4             1.0715     0.5287     0.8147 S.3     
   5 C5             0.1178    -0.9357     0.5850 C.2     
   6 C6            -0.1426     2.9260    -0.2239 C.ar    
   7 C7            -1.2006     3.5566    -0.8734 C.ar    
   8 C8             0.9562     3.6738     0.2111 C.ar    
   9 C9             0.9995     5.0339    -0.0051 C.ar    
  10 C10           -0.0470     5.6721    -0.6561 C.ar    
  11 C11           -1.1565     4.9328    -1.0925 C.ar    
  12 O12            0.0006     7.0115    -0.8658 O.3     
  13 C13            1.2084     7.6826    -0.5014 C.3     
  14 C14            1.3497     8.9628    -1.3273 C.3     
  15 C15            1.1657     8.0376     0.9862 C.3     
  16 C16           -2.2377     5.5886    -1.7645 C.1     
  17 N17           -3.0954     6.1088    -2.2976 N.1     
  18 C18            0.4991    -2.2963     1.0181 C.ar    
  19 C19            1.7615    -2.8051     0.6973 C.ar    
  20 C20            2.1114    -4.0755     1.1048 C.ar    
  21 C21            1.2115    -4.8421     1.8295 C.ar    
  22 C22           -0.0379    -4.3442     2.1483 C.ar    
  23 C23           -0.3975    -3.0724     1.7523 C.ar    
  24 C24            2.9052    -2.1790    -0.0713 C.3     
  25 C25            4.1435    -3.0290     0.2845 C.3     
  26 C26            3.5161    -4.3941     0.6386 C.3     
  27 N27            3.4756    -5.2571    -0.5446 N.am    
  28 S28            4.3442    -6.6667    -0.5714 S.o2    
  29 O29            4.0471    -7.2374    -1.8384 O.2     
  30 O30            5.6674    -6.2693    -0.2390 O.2     
  31 C31            3.6261    -7.6664     0.7612 C.3     
  32 C32            4.2616    -9.0581     0.7539 C.3     
  33 N33            3.6801    -9.8676     1.8330 N.3     
  34 C34            2.2572   -10.1320     1.5842 C.3     
  35 C35            1.7224   -11.0943     2.6472 C.3     
  36 C36            1.9102   -10.4715     4.0334 C.3     
  37 C37            3.3943   -10.1614     4.2481 C.3     
  38 C38            3.8806    -9.2262     3.1387 C.3     
  39 O39            3.5707    -9.5286     5.5171 O.3     
  40 H40           -1.7771    -1.3270    -0.3113 H       
  41 H41           -2.0520     2.9817    -1.2066 H       
  42 H42            1.7738     3.1835     0.7186 H       
  43 H43            1.8508     5.6057     0.3337 H       
  44 H44            2.0595     7.0297    -0.6948 H       
  45 H45            0.4986     9.6158    -1.1339 H       
  46 H46            2.2710     9.4747    -1.0494 H       
  47 H47            1.3801     8.7099    -2.3872 H       
  48 H48            1.0651     7.1256     1.5746 H       
  49 H49            2.0870     8.5496     1.2642 H       
  50 H50            0.3146     8.6906     1.1796 H       
  51 H51            1.4889    -5.8364     2.1471 H       
  52 H52           -0.7316    -4.9496     2.7128 H       
  53 H53           -1.3736    -2.6830     2.0012 H       
  54 H54            2.7105    -2.2242    -1.1428 H       
  55 H55            3.0522    -1.1460     0.2440 H       
  56 H56            4.8107    -3.1197    -0.5726 H       
  57 H57            4.6681    -2.6093     1.1428 H       
  58 H58            4.0804    -4.8737     1.4384 H       
  59 H59            2.9399    -5.0028    -1.3122 H       
  60 H60            3.8172    -7.1847     1.7201 H       
  61 H61            2.5507    -7.7572     0.6081 H       
  62 H62            4.0706    -9.5398    -0.2050 H       
  63 H63            5.3370    -8.9673     0.9070 H       
  64 H64            1.7007    -9.1959     1.6288 H       
  65 H65            2.1380   -10.5786     0.5971 H       
  66 H66            0.6625   -11.2781     2.4715 H       
  67 H67            2.2692   -12.0357     2.5941 H       
  68 H68            1.3322    -9.5499     4.1000 H       
  69 H69            1.5703   -11.1718     4.7964 H       
  70 H70            3.9674   -11.0881     4.2201 H       
  71 H71            4.9405    -9.0148     3.2805 H       
  72 H72            3.3165    -8.2943     3.1760 H       
  73 H73            3.2800   -10.0645     6.2676 H       
@<TRIPOS>BOND
   1    1    2 1
   2    1    3 2
   3    2    5 2
   4    2   40 1
   5    3    4 1
   6    3    6 1
   7    4    5 1
   8    5   18 1
   9    6    7 ar
  10    6    8 ar
  11    7   11 ar
  12    7   41 1
  13    8    9 ar
  14    8   42 1
  15    9   10 ar
  16    9   43 1
  17   10   11 ar
  18   10   12 1
  19   11   16 1
  20   12   13 1
  21   13   14 1
  22   13   15 1
  23   13   44 1
  24   14   45 1
  25   14   46 1
  26   14   47 1
  27   15   48 1
  28   15   49 1
  29   15   50 1
  30   16   17 3
  31   18   19 ar
  32   18   23 ar
  33   19   20 ar
  34   19   24 1
  35   20   21 ar
  36   20   26 1
  37   21   22 ar
  38   21   51 1
  39   22   23 ar
  40   22   52 1
  41   23   53 1
  42   24   25 1
  43   24   54 1
  44   24   55 1
  45   25   26 1
  46   25   56 1
  47   25   57 1
  48   26   27 1
  49   26   58 1
  50   27   28 am
  51   27   59 1
  52   28   29 2
  53   28   30 2
  54   28   31 1
  55   31   32 1
  56   31   60 1
  57   31   61 1
  58   32   33 1
  59   32   62 1
  60   32   63 1
  61   33   34 1
  62   33   38 1
  63   34   35 1
  64   34   64 1
  65   34   65 1
  66   35   36 1
  67   35   66 1
  68   35   67 1
  69   36   37 1
  70   36   68 1
  71   36   69 1
  72   37   38 1
  73   37   39 1
  74   37   70 1
  75   38   71 1
  76   38   72 1
  77   39   73 1

#	End of record

