#	Name: ASD01810220
#	Creating user name:	WinNT
#	Creation time:	15. 06. 2019 19:24

#	Modifying user name:	WinNT
#	Modification time:	15. 06. 2019 19:24

#	Program:	/corina/corina34_cracker 3.40 0067  02.08.2006

@<TRIPOS>MOLECULE
ASD01810220
  42   45    0    0    0
SMALL
NO_CHARGES


@<TRIPOS>ATOM
   1 C1            -0.0168     1.3838    -0.0494 C.ar    
   2 C2             0.0020    -0.0038    -0.0564 C.ar    
   3 C3             1.1973    -0.6918    -0.0516 C.ar    
   4 C4             2.4035     0.0088    -0.0400 C.ar    
   5 C5             2.3796     1.4130    -0.0334 C.ar    
   6 C6             1.1623     2.0949    -0.0379 C.ar    
   7 N7             3.6055    -0.6664    -0.0346 N.pl3   
   8 C8             4.7891    -0.0408    -0.0231 C.2     
   9 C9             4.8932     1.3358    -0.0153 C.2     
  10 C10            3.6618     2.1419    -0.0212 C.2     
  11 O11            3.6999     3.3598    -0.0151 O.2     
  12 C12            6.2115     1.9854    -0.0013 C.2     
  13 O13            6.3000     3.3306     0.0062 O.3     
  14 O14            7.2220     1.3098     0.0035 O.2     
  15 C15            3.5869    -2.1313    -0.0413 C.3     
  16 C16            3.4437    -2.6254    -1.4578 C.ar    
  17 N17            2.2427    -2.7330    -1.9997 N.ar    
  18 C18            2.1126    -3.1654    -3.2400 C.ar    
  19 C19            3.2448    -3.5086    -3.9783 C.ar    
  20 N20            4.4503    -3.3984    -3.4284 N.ar    
  21 C21            4.5706    -2.9597    -2.1891 C.ar    
  22 C22            3.1047    -3.9955    -5.3724 C.ar    
  23 C23            4.2360    -4.3386    -6.1105 C.ar    
  24 C24            4.0996    -4.7915    -7.4071 C.ar    
  25 C25            2.8431    -4.9047    -7.9743 C.ar    
  26 C26            1.7168    -4.5656    -7.2464 C.ar    
  27 C27            1.8409    -4.1171    -5.9471 C.ar    
  28 F28            1.2000    -2.0428    -0.0577 F       
  29 H29           -0.9608     1.9086    -0.0574 H       
  30 H30           -0.9292    -0.5507    -0.0654 H       
  31 H31            1.1450     3.1747    -0.0332 H       
  32 H32            5.6924    -0.6326    -0.0195 H       
  33 H33            7.1886     3.7120     0.0153 H       
  34 H34            4.5175    -2.5084     0.3827 H       
  35 H35            2.7459    -2.4866     0.5542 H       
  36 H36            1.1312    -3.2535    -3.6822 H       
  37 H37            5.5496    -2.8696    -1.7420 H       
  38 H38            5.2176    -4.2498    -5.6689 H       
  39 H39            4.9756    -5.0576    -7.9800 H       
  40 H40            2.7411    -5.2589    -8.9895 H       
  41 H41            0.7382    -4.6560    -7.6943 H       
  42 H42            0.9608    -3.8526    -5.3797 H       
@<TRIPOS>BOND
   1    1    2 ar
   2    1    6 ar
   3    1   29 1
   4    2    3 ar
   5    2   30 1
   6    3    4 ar
   7    3   28 1
   8    4    5 ar
   9    4    7 1
  10    5    6 ar
  11    5   10 1
  12    6   31 1
  13    7    8 1
  14    7   15 1
  15    8    9 2
  16    8   32 1
  17    9   10 1
  18    9   12 1
  19   10   11 2
  20   12   13 1
  21   12   14 2
  22   13   33 1
  23   15   16 1
  24   15   34 1
  25   15   35 1
  26   16   17 ar
  27   16   21 ar
  28   17   18 ar
  29   18   19 ar
  30   18   36 1
  31   19   20 ar
  32   19   22 1
  33   20   21 ar
  34   21   37 1
  35   22   23 ar
  36   22   27 ar
  37   23   24 ar
  38   23   38 1
  39   24   25 ar
  40   24   39 1
  41   25   26 ar
  42   25   40 1
  43   26   27 ar
  44   26   41 1
  45   27   42 1

#	End of record

