#	Name: ASD03091290
#	Creating user name:	WinNT
#	Creation time:	15. 06. 2019 20:30

#	Modifying user name:	WinNT
#	Modification time:	15. 06. 2019 20:30

#	Program:	/corina/corina34_cracker 3.40 0067  02.08.2006

@<TRIPOS>MOLECULE
ASD03091290
  51   55    0    0    0
SMALL
NO_CHARGES


@<TRIPOS>ATOM
   1 N1            -0.0122     1.1982     0.4054 N.2     
   2 C2             0.0032    -0.0279    -0.0505 C.2     
   3 N3             1.1382    -0.6394    -0.5079 N.am    
   4 C4             2.3212     0.0173    -0.5063 C.2     
   5 C5             2.3332     1.3952    -0.0001 C.ar    
   6 C6             3.5046     2.1519     0.0408 C.ar    
   7 C7             3.4697     3.4298     0.5196 C.ar    
   8 C8             2.2717     3.9889     0.9704 C.ar    
   9 C9             1.0960     3.2573     0.9403 C.ar    
  10 C10            1.1127     1.9501     0.4534 C.ar    
  11 O11            3.3390    -0.5155    -0.9099 O.2     
  12 C12            1.0724    -2.0166    -1.0029 C.3     
  13 C13           -1.2644    -0.7879    -0.0718 C.ar    
  14 C14           -2.1392    -0.7223     1.0138 C.ar    
  15 C15           -3.3223    -1.4353     0.9871 C.ar    
  16 C16           -3.6398    -2.2138    -0.1147 C.ar    
  17 C17           -2.7757    -2.2821    -1.1924 C.ar    
  18 C18           -1.5941    -1.5696    -1.1801 C.ar    
  19 F19           -4.1707    -1.3740     2.0368 F       
  20 N20            1.6247     7.4942     3.3322 N.3     
  21 C21            0.8153     7.1939     2.1413 C.3     
  22 C22            0.8955     5.7150     1.7963 C.3     
  23 N23            2.2594     5.2935     1.4550 N.3     
  24 C24            3.1502     5.4326     2.6155 C.3     
  25 C25            3.8637     6.7758     2.5790 C.3     
  26 C26            2.9645     7.9444     2.9288 C.3     
  27 C27            1.6582     6.4737     4.3578 C.3     
  28 C28            2.3516     5.2060     3.8861 C.3     
  29 H29            4.4358     1.7281    -0.3050 H       
  30 H30            4.3774     4.0141     0.5505 H       
  31 H31            0.1732     3.6957     1.2904 H       
  32 H32            0.7903    -2.0111    -2.0558 H       
  33 H33            2.0477    -2.4901    -0.8906 H       
  34 H34            0.3302    -2.5733    -0.4308 H       
  35 H35           -1.8917    -0.1160     1.8726 H       
  36 H36           -4.5656    -2.7697    -0.1317 H       
  37 H37           -3.0287    -2.8908    -2.0479 H       
  38 H38           -0.9230    -1.6206    -2.0248 H       
  39 H39           -0.2232     7.4614     2.3362 H       
  40 H40            1.1843     7.7795     1.2994 H       
  41 H41            0.5499     5.1338     2.6512 H       
  42 H42            0.2413     5.5144     0.9478 H       
  43 H43            3.9039     4.6473     2.5581 H       
  44 H44            4.6937     6.7500     3.2850 H       
  45 H45            4.2650     6.9312     1.5775 H       
  46 H46            2.8743     8.5965     2.0600 H       
  47 H47            3.4131     8.5057     3.7484 H       
  48 H48            2.1875     6.8635     5.2272 H       
  49 H49            0.6361     6.2304     4.6480 H       
  50 H50            1.5996     4.4392     3.6999 H       
  51 H51            3.0241     4.8575     4.6699 H       
@<TRIPOS>BOND
   1    1    2 2
   2    1   10 1
   3    2    3 1
   4    2   13 1
   5    3    4 am
   6    3   12 1
   7    4    5 1
   8    4   11 2
   9    5    6 ar
  10    5   10 ar
  11    6    7 ar
  12    6   29 1
  13    7    8 ar
  14    7   30 1
  15    8    9 ar
  16    8   23 1
  17    9   10 ar
  18    9   31 1
  19   12   32 1
  20   12   33 1
  21   12   34 1
  22   13   14 ar
  23   13   18 ar
  24   14   15 ar
  25   14   35 1
  26   15   16 ar
  27   15   19 1
  28   16   17 ar
  29   16   36 1
  30   17   18 ar
  31   17   37 1
  32   18   38 1
  33   20   21 1
  34   20   26 1
  35   20   27 1
  36   21   22 1
  37   21   39 1
  38   21   40 1
  39   22   23 1
  40   22   41 1
  41   22   42 1
  42   23   24 1
  43   24   25 1
  44   24   28 1
  45   24   43 1
  46   25   26 1
  47   25   44 1
  48   25   45 1
  49   26   46 1
  50   26   47 1
  51   27   28 1
  52   27   48 1
  53   27   49 1
  54   28   50 1
  55   28   51 1

#	End of record

