#	Name: ASD03330370
#	Creating user name:	WinNT
#	Creation time:	15. 06. 2019 20:37

#	Modifying user name:	WinNT
#	Modification time:	15. 06. 2019 20:37

#	Program:	/corina/corina34_cracker 3.40 0067  02.08.2006

@<TRIPOS>MOLECULE
ASD03330370
  53   55    0    0    0
SMALL
NO_CHARGES


@<TRIPOS>ATOM
   1 C1            -0.0179     1.4654     0.0101 C.3     
   2 N2             0.0021    -0.0041     0.0020 N.3     
   3 C3             0.4456    -0.5240    -1.3041 C.3     
   4 C4             1.7197     0.1876    -1.6795 C.2     
   5 N5             2.1509     1.3337    -1.0776 N.pl3   
   6 C6             1.4181     2.0053    -0.0007 C.3     
   7 C7             2.6368    -0.1383    -2.6238 C.2     
   8 N8             3.6120     0.7988    -2.5902 N.2     
   9 C9             3.3258     1.6849    -1.6626 C.2     
  10 C10            4.1453     2.8662    -1.3142 C.ar    
  11 C11            5.1550     3.2968    -2.1755 C.ar    
  12 C12            2.5811    -1.3033    -3.5245 C.2     
  13 O13            1.6468    -2.0791    -3.4581 O.2     
  14 C14            3.5101    -2.6673    -5.3171 C.3     
  15 N15            3.5655    -1.5091    -4.4217 N.am    
  16 C16           -1.3117    -0.5504     0.3675 C.3     
  17 C17            5.9160     4.3989    -1.8454 C.ar    
  18 C18            5.6794     5.0777    -0.6618 C.ar    
  19 C19            4.6787     4.6549     0.1968 C.ar    
  20 C20            3.9076     3.5575    -0.1257 C.ar    
  21 C21            4.7389    -2.6664    -6.2287 C.3     
  22 C22           -2.3315    -0.1942    -0.7160 C.3     
  23 C23            3.4807    -3.7381    -8.1024 C.3     
  24 C24            4.6810    -3.8760    -7.1638 C.3     
  25 C25            5.9679    -3.9451    -7.9884 C.3     
  26 Cl26           6.6414     6.4636    -0.2526 Cl      
  27 H27           -0.5469     1.8253    -0.8723 H       
  28 H28           -0.5299     1.8158     0.9063 H       
  29 H29            0.6300    -1.5958    -1.2308 H       
  30 H30           -0.3193    -0.3316    -2.0564 H       
  31 H31            1.4055     3.0805    -0.1793 H       
  32 H32            1.8969     1.7964     0.9560 H       
  33 H33            5.3406     2.7680    -3.0987 H       
  34 H34            3.4968    -3.5831    -4.7261 H       
  35 H35            2.6068    -2.6139    -5.9248 H       
  36 H36            4.3106    -0.8903    -4.4746 H       
  37 H37           -1.2418    -1.6343     0.4586 H       
  38 H38           -1.6297    -0.1256     1.3196 H       
  39 H39            6.6981     4.7329    -2.5111 H       
  40 H40            4.4985     5.1880     1.1186 H       
  41 H41            3.1273     3.2286     0.5447 H       
  42 H42            4.7522    -1.7506    -6.8196 H       
  43 H43            5.6422    -2.7199    -5.6209 H       
  44 H44           -2.0134    -0.6191    -1.6681 H       
  45 H45           -3.3063    -0.5996    -0.4448 H       
  46 H46           -2.4013     0.8897    -0.8070 H       
  47 H47            2.5638    -3.6889    -7.5149 H       
  48 H48            3.5835    -2.8274    -8.6923 H       
  49 H49            3.4394    -4.5999    -8.7686 H       
  50 H50            4.5782    -4.7868    -6.5738 H       
  51 H51            6.0708    -3.0344    -8.5784 H       
  52 H52            6.8231    -4.0434    -7.3197 H       
  53 H53            5.9267    -4.8069    -8.6546 H       
@<TRIPOS>BOND
   1    1    2 1
   2    1    6 1
   3    1   27 1
   4    1   28 1
   5    2    3 1
   6    2   16 1
   7    3    4 1
   8    3   29 1
   9    3   30 1
  10    4    5 1
  11    4    7 2
  12    5    6 1
  13    5    9 1
  14    6   31 1
  15    6   32 1
  16    7    8 1
  17    7   12 1
  18    8    9 2
  19    9   10 1
  20   10   11 ar
  21   10   20 ar
  22   11   17 ar
  23   11   33 1
  24   12   13 2
  25   12   15 am
  26   14   15 1
  27   14   21 1
  28   14   34 1
  29   14   35 1
  30   15   36 1
  31   16   22 1
  32   16   37 1
  33   16   38 1
  34   17   18 ar
  35   17   39 1
  36   18   19 ar
  37   18   26 1
  38   19   20 ar
  39   19   40 1
  40   20   41 1
  41   21   24 1
  42   21   42 1
  43   21   43 1
  44   22   44 1
  45   22   45 1
  46   22   46 1
  47   23   24 1
  48   23   47 1
  49   23   48 1
  50   23   49 1
  51   24   25 1
  52   24   50 1
  53   25   51 1
  54   25   52 1
  55   25   53 1

#	End of record

