#	Name: ASD01870174
#	Creating user name:	WinNT
#	Creation time:	15. 06. 2019 19:38

#	Modifying user name:	WinNT
#	Modification time:	15. 06. 2019 19:38

#	Program:	/corina/corina34_cracker 3.40 0067  02.08.2006

@<TRIPOS>MOLECULE
ASD01870174
  48   52    0    0    0
SMALL
NO_CHARGES


@<TRIPOS>ATOM
   1 C1            -0.0168     1.3890     0.0097 C.ar    
   2 C2             0.0021    -0.0041     0.0020 C.ar    
   3 C3             1.1787    -0.6895    -0.0125 C.ar    
   4 C4             2.3941     0.0134    -0.0203 C.ar    
   5 C5             2.3756     1.4326    -0.0130 C.ar    
   6 C6             1.1407     2.1050     0.0025 C.ar    
   7 C7             3.6272    -0.6638    -0.0358 C.ar    
   8 C8             4.7900     0.0349    -0.0432 C.ar    
   9 C9             4.7883     1.4437    -0.0362 C.ar    
  10 C10            3.5863     2.1337    -0.0205 C.ar    
  11 C11            5.8879     2.4282    -0.0420 C.2     
  12 N12            5.3953     3.6786    -0.0314 N.am    
  13 C13            3.9299     3.6020    -0.0171 C.3     
  14 C14            6.1525     4.8558    -0.0334 C.ar    
  15 C15            6.5418     5.4362     1.1690 C.ar    
  16 C16            7.2899     6.5993     1.1624 C.ar    
  17 C17            7.6497     7.1843    -0.0377 C.ar    
  18 C18            7.2632     6.6091    -1.2344 C.ar    
  19 C19            6.5215     5.4437    -1.2357 C.ar    
  20 C20            3.6564    -2.1705    -0.0436 C.3     
  21 C21            3.5285    -2.6681    -1.4603 C.ar    
  22 C22            4.6591    -2.8762    -2.2358 C.ar    
  23 C23            4.4942    -3.3345    -3.5335 C.ar    
  24 C24            3.2159    -3.5675    -4.0086 C.ar    
  25 N25            2.1626    -3.3582    -3.2413 N.ar    
  26 C26            2.2835    -2.9280    -2.0005 C.ar    
  27 O27            7.0708     2.1479    -0.0543 O.2     
  28 Cl28           2.9948    -4.1410    -5.6321 Cl      
  29 F29            6.1894     4.8649     2.3415 F       
  30 C30            3.3554     4.2796    -1.2627 C.3     
  31 H31           -0.9637     1.9083     0.0170 H       
  32 H32           -0.9306    -0.5486     0.0080 H       
  33 H33            1.1770    -1.7695    -0.0175 H       
  34 H34            1.1108     3.1846     0.0079 H       
  35 H35            5.7302    -0.4964    -0.0543 H       
  36 H36            3.5385     4.0766     0.8827 H       
  37 H37            7.5931     7.0513     2.0952 H       
  38 H38            8.2336     8.0928    -0.0405 H       
  39 H39            7.5459     7.0692    -2.1698 H       
  40 H40            6.2205     4.9957    -2.1711 H       
  41 H41            4.5989    -2.5179     0.3798 H       
  42 H42            2.8276    -2.5531     0.5521 H       
  43 H43            5.6449    -2.6853    -1.8381 H       
  44 H44            5.3526    -3.5071    -4.1658 H       
  45 H45            1.3984    -2.7685    -1.4025 H       
  46 H46            3.7511     3.7949    -2.1552 H       
  47 H47            2.2687     4.1941    -1.2543 H       
  48 H48            3.6369     5.3326    -1.2661 H       
@<TRIPOS>BOND
   1    1    2 ar
   2    1    6 ar
   3    1   31 1
   4    2    3 ar
   5    2   32 1
   6    3    4 ar
   7    3   33 1
   8    4    5 ar
   9    4    7 ar
  10    5    6 ar
  11    5   10 ar
  12    6   34 1
  13    7    8 ar
  14    7   20 1
  15    8    9 ar
  16    8   35 1
  17    9   10 ar
  18    9   11 1
  19   10   13 1
  20   11   12 am
  21   11   27 2
  22   12   13 1
  23   12   14 1
  24   13   30 1
  25   13   36 1
  26   14   15 ar
  27   14   19 ar
  28   15   16 ar
  29   15   29 1
  30   16   17 ar
  31   16   37 1
  32   17   18 ar
  33   17   38 1
  34   18   19 ar
  35   18   39 1
  36   19   40 1
  37   20   21 1
  38   20   41 1
  39   20   42 1
  40   21   22 ar
  41   21   26 ar
  42   22   23 ar
  43   22   43 1
  44   23   24 ar
  45   23   44 1
  46   24   25 ar
  47   24   28 1
  48   25   26 ar
  49   26   45 1
  50   30   46 1
  51   30   47 1
  52   30   48 1

#	End of record

