#	Name: ASD01141052
#	Creating user name:	WinNT
#	Creation time:	15. 06. 2019 19:01

#	Modifying user name:	WinNT
#	Modification time:	15. 06. 2019 19:01

#	Program:	/corina/corina34_cracker 3.40 0067  02.08.2006

@<TRIPOS>MOLECULE
ASD01141052
  61   64    0    0    0
SMALL
NO_CHARGES


@<TRIPOS>ATOM
   1 C1             0.0784     3.4635    -0.5833 C.3     
   2 C2            -0.3649     2.0022    -0.5288 C.3     
   3 C3             0.1301     1.3459     0.7617 C.3     
   4 C4             1.6544     1.4454     0.8307 C.3     
   5 C5             2.0882     2.9089     0.8116 C.3     
   6 C6             1.6010     3.5626    -0.4807 C.3     
   7 C7             2.1771     0.7317     2.0748 C.3     
   8 C8             3.7079     0.8206     2.1241 C.3     
   9 C9             4.1942     1.5751     0.8871 C.3     
  10 C10            3.6186     2.9902     0.9056 C.3     
  11 C11            5.6793     1.5785     0.7382 C.3     
  12 C12            6.3082     2.9827     0.8644 C.3     
  13 C13            5.7371     3.8965    -0.1885 C.3     
  14 C14            4.2029     3.8544    -0.1963 C.3     
  15 C15            6.5325     0.7823     1.7363 C.3     
  16 C16            7.9643     1.2294     1.3094 C.3     
  17 C17            7.8032     2.6365     0.6800 C.3     
  18 H18           -1.4568     1.9584    -0.5550 H       
  19 O19            0.1570     1.2983    -1.6570 O.3     
  20 C20            1.5072     3.6600     2.0137 C.3     
  21 H21            2.0586     0.9432    -0.0582 H       
  22 C22            6.1801     3.5854     2.2615 C.3     
  23 C23            8.6621     3.6570     1.4235 C.3     
  24 H24            8.0448     2.6163    -0.3772 H       
  25 H25            8.4168     3.6337     2.4853 H       
  26 C26           10.0849     3.3265     1.2413 C.1     
  27 C27           11.2197     3.0629     1.0960 C.1     
  28 H28           12.2346     2.8271     0.9661 H       
  29 O29            8.4063     4.9635     0.9042 O.3     
  30 C30            8.5720     6.0120     1.8609 C.3     
  31 H31           -0.2366     3.8908    -1.5429 H       
  32 H32           -0.3987     4.0281     0.2132 H       
  33 H33           -0.3303     1.8182     1.6232 H       
  34 H34           -0.1542     0.2879     0.7502 H       
  35 H35            2.0512     3.0581    -1.3371 H       
  36 H36            1.8922     4.6145    -0.4890 H       
  37 H37            1.7530     1.1669     2.9757 H       
  38 H38            1.8879    -0.3238     2.0280 H       
  39 H39            4.0124     1.3545     3.0233 H       
  40 H40            4.1305    -0.1834     2.1308 H       
  41 H41            3.7789     1.0535     0.0023 H       
  42 H42            3.8073     3.4524     1.8791 H       
  43 H43            5.9225     1.1869    -0.2769 H       
  44 H44            6.0712     4.9266    -0.0024 H       
  45 H45            6.1145     3.6007    -1.1767 H       
  46 H46            3.8692     3.4767    -1.1717 H       
  47 H47            3.8207     4.8788    -0.0932 H       
  48 H48            6.3237     1.0391     2.7641 H       
  49 H49            6.4122    -0.2898     1.5699 H       
  50 H50            8.6114     1.2800     2.1825 H       
  51 H51            8.3642     0.5330     0.5752 H       
  52 H52           -0.1334     1.6509    -2.5093 H       
  53 H53            1.8611     3.1990     2.9358 H       
  54 H54            1.8282     4.7011     1.9814 H       
  55 H55            0.4187     3.6142     1.9791 H       
  56 H56            6.8037     3.0246     2.9577 H       
  57 H57            6.5050     4.6256     2.2396 H       
  58 H58            5.1403     3.5363     2.5844 H       
  59 H59            7.8852     5.8565     2.6929 H       
  60 H60            9.5974     6.0079     2.2305 H       
  61 H61            8.3597     6.9713     1.3889 H       
@<TRIPOS>BOND
   1    1    2 1
   2    1    6 1
   3    1   31 1
   4    1   32 1
   5    2    3 1
   6    2   18 1
   7    2   19 1
   8    3    4 1
   9    3   33 1
  10    3   34 1
  11    4    5 1
  12    4    7 1
  13    4   21 1
  14    5    6 1
  15    5   20 1
  16    5   10 1
  17    6   35 1
  18    6   36 1
  19    7    8 1
  20    7   37 1
  21    7   38 1
  22    8    9 1
  23    8   39 1
  24    8   40 1
  25    9   10 1
  26    9   11 1
  27    9   41 1
  28   10   14 1
  29   10   42 1
  30   11   12 1
  31   11   15 1
  32   11   43 1
  33   12   13 1
  34   12   17 1
  35   12   22 1
  36   13   14 1
  37   13   44 1
  38   13   45 1
  39   14   46 1
  40   14   47 1
  41   15   16 1
  42   15   48 1
  43   15   49 1
  44   16   17 1
  45   16   50 1
  46   16   51 1
  47   17   23 1
  48   17   24 1
  49   19   52 1
  50   20   53 1
  51   20   54 1
  52   20   55 1
  53   22   56 1
  54   22   57 1
  55   22   58 1
  56   23   25 1
  57   23   26 1
  58   23   29 1
  59   26   27 3
  60   27   28 1
  61   29   30 1
  62   30   59 1
  63   30   60 1
  64   30   61 1

#	End of record

