#	Name: ASD01890213
#	Creating user name:	WinNT
#	Creation time:	15. 06. 2019 19:50

#	Modifying user name:	WinNT
#	Modification time:	15. 06. 2019 19:50

#	Program:	/corina/corina34_cracker 3.40 0067  02.08.2006

@<TRIPOS>MOLECULE
ASD01890213
  31   32    0    0    0
SMALL
NO_CHARGES


@<TRIPOS>ATOM
   1 C1            -0.0178     1.4579     0.0101 C.2     
   2 C2             0.0021    -0.0041     0.0020 C.2     
   3 C3             1.1809    -0.6635    -0.0128 C.2     
   4 O4             1.0280     2.0808     0.0034 O.2     
   5 C5             1.2009    -2.1343    -0.0209 C.ar    
   6 C6             2.4197    -2.8210    -0.0362 C.ar    
   7 C7             2.4298    -4.1997    -0.0432 C.ar    
   8 C8             1.2384    -4.9043    -0.0356 C.ar    
   9 C9             0.0284    -4.2324    -0.0204 C.ar    
  10 C10            0.0012    -2.8540    -0.0074 C.ar    
  11 C11            1.2589    -6.4111    -0.0444 C.3     
  12 F12            1.2780    -6.8849     1.2718 F       
  13 F13            0.1166    -6.8892    -0.6955 F       
  14 F14            2.4009    -6.8581    -0.7176 F       
  15 C15           -1.3086     2.1800     0.0201 C.ar    
  16 C16           -1.3311     3.5759     0.0278 C.ar    
  17 C17           -2.5384     4.2431     0.0367 C.ar    
  18 C18           -3.7254     3.5319     0.0380 C.ar    
  19 C19           -3.7102     2.1482     0.0308 C.ar    
  20 C20           -2.5099     1.4686     0.0161 C.ar    
  21 H21           -0.9258    -0.5567     0.0079 H       
  22 H22            2.1088    -0.1108    -0.0187 H       
  23 H23            3.3501    -2.2726    -0.0429 H       
  24 H24            3.3699    -4.7313    -0.0550 H       
  25 H25           -0.8969    -4.7893    -0.0146 H       
  26 H26           -0.9437    -2.3311     0.0089 H       
  27 H27           -0.4053     4.1321     0.0272 H       
  28 H28           -2.5572     5.3229     0.0430 H       
  29 H29           -4.6680     4.0591     0.0449 H       
  30 H30           -4.6403     1.5991     0.0322 H       
  31 H31           -2.4994     0.3887     0.0060 H       
@<TRIPOS>BOND
   1    1    2 1
   2    1    4 2
   3    1   15 1
   4    2    3 2
   5    2   21 1
   6    3    5 1
   7    3   22 1
   8    5    6 ar
   9    5   10 ar
  10    6    7 ar
  11    6   23 1
  12    7    8 ar
  13    7   24 1
  14    8    9 ar
  15    8   11 1
  16    9   10 ar
  17    9   25 1
  18   10   26 1
  19   11   12 1
  20   11   13 1
  21   11   14 1
  22   15   16 ar
  23   15   20 ar
  24   16   17 ar
  25   16   27 1
  26   17   18 ar
  27   17   28 1
  28   18   19 ar
  29   18   29 1
  30   19   20 ar
  31   19   30 1
  32   20   31 1

#	End of record

