#	Name: ASD02038564
#	Creating user name:	WinNT
#	Creation time:	15. 06. 2019 20:17

#	Modifying user name:	WinNT
#	Modification time:	15. 06. 2019 20:17

#	Program:	/corina/corina34_cracker 3.40 0067  02.08.2006

@<TRIPOS>MOLECULE
ASD02038564
  52   54    0    0    0
SMALL
NO_CHARGES


@<TRIPOS>ATOM
   1 C1            -0.0172     1.4641    -0.0077 C.3     
   2 N2             0.0026    -0.0052     0.0023 N.3     
   3 C3            -1.3592    -0.5495     0.0884 C.3     
   4 C4             0.7049    -0.5277    -1.1781 C.3     
   5 C5             2.1419    -0.0009    -1.1881 C.3     
   6 N6             2.1221     1.4685    -1.1981 N.3     
   7 C7             3.4199     1.9872    -1.2801 C.ar    
   8 C8             3.6181     3.3616    -1.3025 C.ar    
   9 C9             4.8979     3.8733    -1.3834 C.ar    
  10 C10            5.9874     3.0134    -1.4419 C.ar    
  11 C11            5.7888     1.6387    -1.4190 C.ar    
  12 C12            4.5091     1.1274    -1.3332 C.ar    
  13 C13            1.4197     1.9910    -0.0177 C.3     
  14 S14            7.6207     3.6662    -1.5457 S.3     
  15 C15           -1.8792    -0.3986     1.5193 C.3     
  16 C16           -3.3393    -0.8515     1.5817 C.3     
  17 O17           -3.8599    -0.6022     2.8890 O.3     
  18 C18           -5.1552    -0.9496     3.1143 C.ar    
  19 C19           -5.7239    -0.7352     4.3610 C.ar    
  20 C20           -7.0396    -1.0881     4.5899 C.ar    
  21 C21           -7.7921    -1.6564     3.5728 C.ar    
  22 C22           -7.2237    -1.8699     2.3258 C.ar    
  23 C23           -5.9093    -1.5130     2.0957 C.ar    
  24 O24           -9.0871    -2.0047     3.7983 O.3     
  25 O25           -1.0927    -1.2041     2.3994 O.3     
  26 C26            8.6534     2.1757    -1.5955 C.3     
  27 H27           -0.5393     1.8147    -0.8980 H       
  28 H28           -0.5314     1.8270     0.8823 H       
  29 H29           -2.0117    -0.0055    -0.5946 H       
  30 H30           -1.3466    -1.6048    -0.1843 H       
  31 H31            0.7172    -1.6170    -1.1414 H       
  32 H32            0.1911    -0.1997    -2.0817 H       
  33 H33            2.6639    -0.3515    -0.2978 H       
  34 H34            2.6560    -0.3637    -2.0781 H       
  35 H35            2.7711     4.0301    -1.2570 H       
  36 H36            5.0520     4.9421    -1.4015 H       
  37 H37            6.6356     0.9699    -1.4644 H       
  38 H38            4.3547     0.0586    -1.3154 H       
  39 H39            1.4074     3.0803    -0.0544 H       
  40 H40            1.9336     1.6630     0.8859 H       
  41 H41           -1.8095     0.6459     1.8230 H       
  42 H42           -3.9232    -0.2977     0.8465 H       
  43 H43           -3.3986    -1.9179     1.3643 H       
  44 H44           -5.1379    -0.2927     5.1530 H       
  45 H45           -7.4822    -0.9219     5.5609 H       
  46 H46           -7.8097    -2.3124     1.5338 H       
  47 H47           -5.4667    -1.6793     1.1247 H       
  48 H48           -9.7226    -1.3012     3.6073 H       
  49 H49           -1.1081    -2.1477     2.1882 H       
  50 H50            8.3855     1.5770    -2.4661 H       
  51 H51            9.7029     2.4629    -1.6611 H       
  52 H52            8.4925     1.5917    -0.6894 H       
@<TRIPOS>BOND
   1    1    2 1
   2    1   13 1
   3    1   27 1
   4    1   28 1
   5    2    3 1
   6    2    4 1
   7    3   15 1
   8    3   29 1
   9    3   30 1
  10    4    5 1
  11    4   31 1
  12    4   32 1
  13    5    6 1
  14    5   33 1
  15    5   34 1
  16    6    7 1
  17    6   13 1
  18    7    8 ar
  19    7   12 ar
  20    8    9 ar
  21    8   35 1
  22    9   10 ar
  23    9   36 1
  24   10   11 ar
  25   10   14 1
  26   11   12 ar
  27   11   37 1
  28   12   38 1
  29   13   39 1
  30   13   40 1
  31   14   26 1
  32   15   16 1
  33   15   25 1
  34   15   41 1
  35   16   17 1
  36   16   42 1
  37   16   43 1
  38   17   18 1
  39   18   19 ar
  40   18   23 ar
  41   19   20 ar
  42   19   44 1
  43   20   21 ar
  44   20   45 1
  45   21   22 ar
  46   21   24 1
  47   22   23 ar
  48   22   46 1
  49   23   47 1
  50   24   48 1
  51   25   49 1
  52   26   50 1
  53   26   51 1
  54   26   52 1

#	End of record

