#	Name: ASD00431071
#	Creating user name:	WinNT
#	Creation time:	15. 06. 2019 18:35

#	Modifying user name:	WinNT
#	Modification time:	15. 06. 2019 18:35

#	Program:	/corina/corina34_cracker 3.40 0067  02.08.2006

@<TRIPOS>MOLECULE
ASD00431071
  94   98    0    0    0
SMALL
NO_CHARGES


@<TRIPOS>ATOM
   1 C1            -0.0505     1.5878     0.0157 C.2     
   2 C2            -0.0268     0.0662    -0.0534 C.3     
   3 C3             1.0136     2.3531     0.0065 C.2     
   4 C4             2.4006     1.7755    -0.0254 C.3     
   5 N5             2.3780     0.3160     0.0283 N.am    
   6 C6             1.2532    -0.3971     0.6506 C.3     
   7 C7            -1.2670    -0.3001     0.7873 C.3     
   8 C8            -2.0996     0.9673     0.7425 C.2     
   9 N9            -1.3829     1.9483     0.1604 N.am    
  10 O10           -3.2316     1.0794     1.1632 O.2     
  11 C11           -2.0250    -1.4676     0.1522 C.3     
  12 C12           -3.1372    -1.9036     1.0709 C.2     
  13 N13           -3.9433    -2.9238     0.7162 N.am    
  14 O14           -3.3069    -1.3364     2.1294 O.2     
  15 C15           -5.0245    -3.3476     1.6093 C.3     
  16 C16           -5.7711    -4.4975     0.9837 C.ar    
  17 C17           -5.2501    -5.8008     1.0559 C.ar    
  18 C18           -5.9669    -6.8694     0.4620 C.ar    
  19 C19           -5.4464    -8.1728     0.5350 C.ar    
  20 C20           -4.2644    -8.3911     1.1731 C.ar    
  21 C21           -7.1846    -6.6052    -0.1880 C.ar    
  22 C22           -1.9399     3.2345    -0.2660 C.3     
  23 C23           -1.8423     4.2389     0.8840 C.3     
  24 C24           -2.4153     5.5619     0.4454 C.ar    
  25 C25            3.4007    -0.3855    -0.4994 C.2     
  26 O26            3.3894    -1.5999    -0.4588 O.2     
  27 O27            4.4348     0.2593    -1.0717 O.3     
  28 C28            5.5009    -0.5602    -1.6194 C.3     
  29 C29           -3.7585     5.8278     0.6330 C.ar    
  30 C30           -4.2891     7.0403     0.2323 C.ar    
  31 C31           -3.4738     7.9918    -0.3583 C.ar    
  32 C32           -2.1209     7.7242    -0.5468 C.ar    
  33 C33           -1.5948     6.5095    -0.1387 C.ar    
  34 C34           -6.9562    -4.2802     0.3509 C.ar    
  35 C35           -7.6581    -5.3303    -0.2384 C.ar    
  36 C36           -3.5594    -7.3402     1.7571 C.ar    
  37 C37           -4.0324    -6.0651     1.7058 C.ar    
  38 C38            4.9339    -1.4745    -2.7072 C.3     
  39 C39            6.5792     0.3422    -2.2227 C.3     
  40 O40           -3.9942     9.1845    -0.7533 O.3     
  41 C41           -5.3904     9.3895    -0.5287 C.3     
  42 O42           -1.3165     8.6550    -1.1266 O.3     
  43 C43            0.0612     8.3116    -1.2882 C.3     
  44 C44           -0.1258    -0.4446    -1.4677 C.2     
  45 O45           -0.3317     0.3259    -2.3753 O.2     
  46 O46            0.0147    -1.7557    -1.7192 O.3     
  47 C47            0.0935    -3.6924    -3.1933 C.3     
  48 C48           -0.0926    -2.1763    -3.1047 C.3     
  49 C49            6.1132    -1.4118    -0.5055 C.3     
  50 H50            0.8905     3.4260     0.0219 H       
  51 H51            2.8958     2.0899    -0.9440 H       
  52 H52            2.9632     2.1541     0.8280 H       
  53 H53            1.2015    -0.1537     1.7118 H       
  54 H54            1.3789    -1.4721     0.5216 H       
  55 H55           -0.9813    -0.5371     1.8122 H       
  56 H56           -2.4453    -1.1514    -0.8026 H       
  57 H57           -1.3403    -2.3000    -0.0100 H       
  58 H58           -3.8076    -3.3774    -0.1304 H       
  59 H59           -4.6042    -3.6638     2.5641 H       
  60 H60           -5.7092    -2.5152     1.7715 H       
  61 H61           -5.9819    -8.9970     0.0873 H       
  62 H62           -3.8668    -9.3938     1.2280 H       
  63 H63           -7.7415    -7.4096    -0.6454 H       
  64 H64           -1.3787     3.6074    -1.1228 H       
  65 H65           -2.9852     3.1029    -0.5457 H       
  66 H66           -2.4035     3.8660     1.7407 H       
  67 H67           -0.7971     4.3705     1.1637 H       
  68 H68           -4.3953     5.0867     1.0933 H       
  69 H69           -5.3393     7.2452     0.3794 H       
  70 H70           -0.5454     6.2994    -0.2839 H       
  71 H71           -7.3564    -3.2784     0.3004 H       
  72 H72           -8.5963    -5.1306    -0.7348 H       
  73 H73           -2.6235    -7.5406     2.2575 H       
  74 H74           -3.4753    -5.2607     2.1629 H       
  75 H75            4.4977    -0.8678    -3.5008 H       
  76 H76            5.7342    -2.0897    -3.1184 H       
  77 H77            4.1657    -2.1174    -2.2775 H       
  78 H78            6.9832     0.9936    -1.4477 H       
  79 H79            7.3796    -0.2730    -2.6339 H       
  80 H80            6.1431     0.9489    -3.0163 H       
  81 H81           -5.6013     9.3170     0.5382 H       
  82 H82           -5.6751    10.3781    -0.8890 H       
  83 H83           -5.9599     8.6298    -1.0641 H       
  84 H84            0.5888     9.1395    -1.7617 H       
  85 H85            0.5024     8.1104    -0.3120 H       
  86 H86            0.1431     7.4230    -1.9141 H       
  87 H87            0.0129    -4.0082    -4.2334 H       
  88 H88            1.0768    -3.9609    -2.8072 H       
  89 H89           -0.6767    -4.1881    -2.6024 H       
  90 H90           -1.0759    -1.9078    -3.4908 H       
  91 H91            0.6776    -1.6806    -3.6957 H       
  92 H92            5.3450    -2.0546    -0.0757 H       
  93 H93            6.9135    -2.0270    -0.9167 H       
  94 H94            6.5172    -0.7604     0.2695 H       
@<TRIPOS>BOND
   1    1    2 1
   2    1    3 2
   3    1    9 1
   4    2    7 1
   5    2   44 1
   6    2    6 1
   7    3    4 1
   8    3   50 1
   9    4    5 1
  10    4   51 1
  11    4   52 1
  12    5    6 1
  13    5   25 am
  14    6   53 1
  15    6   54 1
  16    7    8 1
  17    7   11 1
  18    7   55 1
  19    8    9 am
  20    8   10 2
  21    9   22 1
  22   11   12 1
  23   11   56 1
  24   11   57 1
  25   12   13 am
  26   12   14 2
  27   13   15 1
  28   13   58 1
  29   15   16 1
  30   15   59 1
  31   15   60 1
  32   16   17 ar
  33   16   34 ar
  34   17   18 ar
  35   17   37 ar
  36   18   19 ar
  37   18   21 ar
  38   19   20 ar
  39   19   61 1
  40   20   36 ar
  41   20   62 1
  42   21   35 ar
  43   21   63 1
  44   22   23 1
  45   22   64 1
  46   22   65 1
  47   23   24 1
  48   23   66 1
  49   23   67 1
  50   24   29 ar
  51   24   33 ar
  52   25   26 2
  53   25   27 1
  54   27   28 1
  55   28   38 1
  56   28   39 1
  57   28   49 1
  58   29   30 ar
  59   29   68 1
  60   30   31 ar
  61   30   69 1
  62   31   32 ar
  63   31   40 1
  64   32   33 ar
  65   32   42 1
  66   33   70 1
  67   34   35 ar
  68   34   71 1
  69   35   72 1
  70   36   37 ar
  71   36   73 1
  72   37   74 1
  73   38   75 1
  74   38   76 1
  75   38   77 1
  76   39   78 1
  77   39   79 1
  78   39   80 1
  79   40   41 1
  80   41   81 1
  81   41   82 1
  82   41   83 1
  83   42   43 1
  84   43   84 1
  85   43   85 1
  86   43   86 1
  87   44   45 2
  88   44   46 1
  89   46   48 1
  90   47   48 1
  91   47   87 1
  92   47   88 1
  93   47   89 1
  94   48   90 1
  95   48   91 1
  96   49   92 1
  97   49   93 1
  98   49   94 1

#	End of record

