#	Name: ASD01917414
#	Creating user name:	WinNT
#	Creation time:	15. 06. 2019 20:09

#	Modifying user name:	WinNT
#	Modification time:	15. 06. 2019 20:09

#	Program:	/corina/corina34_cracker 3.40 0067  02.08.2006

@<TRIPOS>MOLECULE
ASD01917414
  40   42    0    0    0
SMALL
NO_CHARGES


@<TRIPOS>ATOM
   1 C1            -0.0168     1.3889     0.0097 C.ar    
   2 C2             0.0021    -0.0041     0.0020 C.ar    
   3 C3             1.2225    -0.6606    -0.0132 C.ar    
   4 C4             2.3820     0.0991    -0.0202 C.ar    
   5 C5             2.2883     1.4815    -0.0119 C.ar    
   6 N6             1.1168     2.0790     0.0026 N.ar    
   7 C7            -1.3134     2.1059     0.0197 C.2     
   8 O8            -2.3544     1.4791     0.0212 O.2     
   9 N9            -1.3382     3.4534     0.0271 N.am    
  10 C10           -2.6202     4.1624     0.0371 C.3     
  11 C11           -3.4818     3.8063     1.2612 C.3     
  12 C12           -4.8851     4.3843     1.0684 C.3     
  13 C13           -4.8102     5.8924     0.8223 C.3     
  14 C14           -3.8915     6.1587    -0.3830 C.3     
  15 C15           -4.2821     5.1559    -1.4932 C.3     
  16 C16           -3.4679     3.8775    -1.2242 C.3     
  17 C17           -2.4672     5.7064     0.0341 C.3     
  18 N18           -3.9480     7.5548    -0.8364 N.3     
  19 C19            3.5460     2.3117    -0.0195 C.3     
  20 H20           -0.9212    -0.5643     0.0082 H       
  21 H21            1.2691    -1.7396    -0.0191 H       
  22 H22            3.3489    -0.3819    -0.0317 H       
  23 H23           -0.5072     3.9538     0.0259 H       
  24 H24           -3.5441     2.7226     1.3605 H       
  25 H25           -3.0327     4.2308     2.1591 H       
  26 H26           -5.3593     3.9024     0.2134 H       
  27 H27           -5.4796     4.1937     1.9620 H       
  28 H28           -5.8081     6.2776     0.6124 H       
  29 H29           -4.4054     6.3864     1.7056 H       
  30 H30           -5.3489     4.9382    -1.4430 H       
  31 H31           -4.0280     5.5629    -2.4719 H       
  32 H32           -2.8174     3.6623    -2.0720 H       
  33 H33           -4.1384     3.0375    -1.0431 H       
  34 H34           -2.2151     6.0762     1.0280 H       
  35 H35           -1.7258     6.0243    -0.6991 H       
  36 H36           -4.8864     7.8101    -1.1052 H       
  37 H37           -3.5920     8.1796    -0.1286 H       
  38 H38            3.8394     2.5173    -1.0490 H       
  39 H39            3.3639     3.2518     0.5011 H       
  40 H40            4.3444     1.7663     0.4838 H       
@<TRIPOS>BOND
   1    1    2 ar
   2    1    6 ar
   3    1    7 1
   4    2    3 ar
   5    2   20 1
   6    3    4 ar
   7    3   21 1
   8    4    5 ar
   9    4   22 1
  10    5    6 ar
  11    5   19 1
  12    7    8 2
  13    7    9 am
  14    9   10 1
  15    9   23 1
  16   10   11 1
  17   10   16 1
  18   10   17 1
  19   11   12 1
  20   11   24 1
  21   11   25 1
  22   12   13 1
  23   12   26 1
  24   12   27 1
  25   13   14 1
  26   13   28 1
  27   13   29 1
  28   14   15 1
  29   14   17 1
  30   14   18 1
  31   15   16 1
  32   15   30 1
  33   15   31 1
  34   16   32 1
  35   16   33 1
  36   17   34 1
  37   17   35 1
  38   18   36 1
  39   18   37 1
  40   19   38 1
  41   19   39 1
  42   19   40 1

#	End of record

