#	Name: ASD05430364
#	Creating user name:	WinNT
#	Creation time:	15. 06. 2019 21:00

#	Modifying user name:	WinNT
#	Modification time:	15. 06. 2019 21:00

#	Program:	/corina/corina34_cracker 3.40 0067  02.08.2006

@<TRIPOS>MOLECULE
ASD05430364
  61   65    0    0    0
SMALL
NO_CHARGES


@<TRIPOS>ATOM
   1 C1            -0.1706     1.2090     0.9646 C.ar    
   2 C2            -0.0147    -0.0171     0.3185 C.ar    
   3 C3            -1.0646    -0.5597    -0.4117 C.ar    
   4 C4            -2.2646     0.1110    -0.5015 C.ar    
   5 C5            -2.4283     1.3412     0.1438 C.ar    
   6 C6            -1.3734     1.8846     0.8836 C.ar    
   7 C7            -4.8620     1.3700    -0.0453 C.2     
   8 C8            -3.7095     2.0592     0.0490 C.2     
   9 N9            -7.2946     1.4655     0.2228 N.pl3   
  10 C10           -6.1493     2.0291    -0.3150 C.2     
  11 C11           -8.2837     2.7465     2.0084 C.ar    
  12 C12           -9.3908     2.7912     2.8352 C.ar    
  13 C13           -7.0406     3.1045     2.4959 C.ar    
  14 C14           -6.9033     3.5073     3.8108 C.ar    
  15 C15           -8.0113     3.5524     4.6398 C.ar    
  16 C16           -9.2559     3.1940     4.1503 C.ar    
  17 F17           -7.8782     3.9455     5.9254 F       
  18 O18            0.8588     1.7368     1.6787 O.3     
  19 C19            0.6290     2.9958     2.3145 C.3     
  20 C20            1.3750    -2.0205     0.7440 C.2     
  21 N21            1.2037    -0.7030     0.4057 N.pl3   
  22 C22            2.6987    -2.2644     0.7049 C.2     
  23 N23            3.3233    -1.1307     0.3531 N.2     
  24 C24            2.4388    -0.1882     0.1711 C.2     
  25 C25            3.3636    -3.5830     1.0051 C.3     
  26 C26           -4.9171    -0.1423     0.1138 C.3     
  27 C27           -6.1243    -0.4724     1.0020 C.3     
  28 O28           -7.3175     0.0572     0.4163 O.3     
  29 C29           -8.4310     2.3011     0.5763 C.3     
  30 C30           -8.5413     3.5309    -0.3146 C.3     
  31 C31           -7.6077     3.4653    -1.5143 C.3     
  32 N32           -6.2568     3.0598    -1.1037 N.2     
  33 C33           -9.9822     3.6530    -0.8142 C.3     
  34 O34          -10.1281     4.8656    -1.5561 O.3     
  35 H35           -0.9396    -1.5094    -0.9105 H       
  36 H36           -3.0788    -0.3129    -1.0705 H       
  37 H37           -1.4955     2.8342     1.3834 H       
  38 H38           -3.7251     3.1391     0.0551 H       
  39 H39          -10.3614     2.5115     2.4531 H       
  40 H40           -6.1765     3.0692     1.8491 H       
  41 H41           -5.9319     3.7863     4.1916 H       
  42 H42          -10.1210     3.2292     4.7959 H       
  43 H43            1.5281     3.3024     2.8490 H       
  44 H44            0.3816     3.7435     1.5609 H       
  45 H45           -0.1979     2.9019     3.0183 H       
  46 H46            0.5977    -2.7262     0.9977 H       
  47 H47            2.6530     0.8302    -0.1177 H       
  48 H48            3.4460    -4.1656     0.0876 H       
  49 H49            4.3587    -3.4038     1.4123 H       
  50 H50            2.7671    -4.1334     1.7327 H       
  51 H51           -5.0366    -0.6127    -0.8622 H       
  52 H52           -4.0018    -0.4980     0.5869 H       
  53 H53           -6.2176    -1.5540     1.0991 H       
  54 H54           -5.9791    -0.0325     1.9887 H       
  55 H55           -9.3444     1.7137     0.4827 H       
  56 H56           -8.2977     4.4157     0.2737 H       
  57 H57           -7.9961     2.7424    -2.2317 H       
  58 H58           -7.5599     4.4469    -1.9856 H       
  59 H59          -10.2174     2.8039    -1.4560 H       
  60 H60          -10.6624     3.6641     0.0375 H       
  61 H61          -11.0188     5.0090    -1.9041 H       
@<TRIPOS>BOND
   1    1    2 ar
   2    1   18 1
   3    1    6 ar
   4    2    3 ar
   5    2   21 1
   6    3    4 ar
   7    3   35 1
   8    4    5 ar
   9    4   36 1
  10    5    6 ar
  11    5    8 1
  12    6   37 1
  13    7    8 2
  14    7   26 1
  15    7   10 1
  16    8   38 1
  17    9   10 1
  18    9   29 1
  19    9   28 1
  20   10   32 2
  21   11   12 ar
  22   11   13 ar
  23   11   29 1
  24   12   16 ar
  25   12   39 1
  26   13   14 ar
  27   13   40 1
  28   14   15 ar
  29   14   41 1
  30   15   16 ar
  31   15   17 1
  32   16   42 1
  33   18   19 1
  34   19   43 1
  35   19   44 1
  36   19   45 1
  37   20   21 1
  38   20   22 2
  39   20   46 1
  40   21   24 1
  41   22   23 1
  42   22   25 1
  43   23   24 2
  44   24   47 1
  45   25   48 1
  46   25   49 1
  47   25   50 1
  48   26   27 1
  49   26   51 1
  50   26   52 1
  51   27   28 1
  52   27   53 1
  53   27   54 1
  54   29   30 1
  55   29   55 1
  56   30   31 1
  57   30   33 1
  58   30   56 1
  59   31   32 1
  60   31   57 1
  61   31   58 1
  62   33   34 1
  63   33   59 1
  64   33   60 1
  65   34   61 1

#	End of record

