#	Name: ASD05420006
#	Creating user name:	WinNT
#	Creation time:	15. 06. 2019 20:59

#	Modifying user name:	WinNT
#	Modification time:	15. 06. 2019 20:59

#	Program:	/corina/corina34_cracker 3.40 0067  02.08.2006

@<TRIPOS>MOLECULE
ASD05420006
  31   32    0    0    0
SMALL
NO_CHARGES


@<TRIPOS>ATOM
   1 C1            -0.0398     1.3409    -0.0436 C.ar    
   2 C2             0.0319    -0.0450    -0.1051 C.ar    
   3 C3             1.2688    -0.6752    -0.0668 C.ar    
   4 C4             2.4295     0.0821     0.0329 C.ar    
   5 C5             2.3541     1.4603     0.0939 C.ar    
   6 C6             1.1251     2.0910     0.0560 C.ar    
   7 N7            -1.2827     1.9804    -0.0877 N.pl3   
   8 N8             1.3460    -2.0702    -0.1279 N.pl3   
   9 N9             3.7484    -0.5887     0.0744 N.pl3   
  10 O10            3.8781    -1.6405     0.6746 O.2     
  11 O11            4.7039    -0.0887    -0.4918 O.2     
  12 C12           -1.3572     3.4420    -0.0227 C.3     
  13 C13           -2.7992     3.8750    -0.0885 C.ar    
  14 C14           -3.5315     4.0167     1.0754 C.ar    
  15 C15           -4.8538     4.4141     1.0163 C.ar    
  16 C16           -5.4451     4.6703    -0.2092 C.ar    
  17 C17           -4.7105     4.5280    -1.3743 C.ar    
  18 C18           -3.3869     4.1356    -1.3124 C.ar    
  19 F19           -6.7378     5.0584    -0.2682 F       
  20 F20           -1.0989    -0.7780    -0.2015 F       
  21 H21            3.2581     2.0462     0.1717 H       
  22 H22            1.0702     3.1686     0.1035 H       
  23 H23           -2.0955     1.4561    -0.1612 H       
  24 H24            0.5367    -2.6031    -0.0843 H       
  25 H25            2.2089    -2.5049    -0.2140 H       
  26 H26           -0.9165     3.7871     0.9126 H       
  27 H27           -0.8103     3.8714    -0.8622 H       
  28 H28           -3.0703     3.8164     2.0312 H       
  29 H29           -5.4259     4.5244     1.9257 H       
  30 H30           -5.1707     4.7276    -2.3307 H       
  31 H31           -2.8126     4.0285    -2.2207 H       
@<TRIPOS>BOND
   1    1    2 ar
   2    1    6 ar
   3    1    7 1
   4    2    3 ar
   5    2   20 1
   6    3    4 ar
   7    3    8 1
   8    4    5 ar
   9    4    9 1
  10    5    6 ar
  11    5   21 1
  12    6   22 1
  13    7   12 1
  14    7   23 1
  15    8   24 1
  16    8   25 1
  17    9   10 2
  18    9   11 2
  19   12   13 1
  20   12   26 1
  21   12   27 1
  22   13   14 ar
  23   13   18 ar
  24   14   15 ar
  25   14   28 1
  26   15   16 ar
  27   15   29 1
  28   16   17 ar
  29   16   19 1
  30   17   18 ar
  31   17   30 1
  32   18   31 1

#	End of record

