#	Name: ASD03091553
#	Creating user name:	WinNT
#	Creation time:	15. 06. 2019 20:30

#	Modifying user name:	WinNT
#	Modification time:	15. 06. 2019 20:30

#	Program:	/corina/corina34_cracker 3.40 0067  02.08.2006

@<TRIPOS>MOLECULE
ASD03091553
  48   49    0    0    0
SMALL
NO_CHARGES


@<TRIPOS>ATOM
   1 Cl1            0.0000     0.0000     0.0000 Cl      
   2 H2             0.0000     1.3700     0.0000 H       
   3 C3            13.6959    12.0130     6.5888 C.ar    
   4 C4            13.7150    10.6078     6.5810 C.ar    
   5 C5            14.9401     9.9407     6.5665 C.ar    
   6 C6            16.1185    10.6607     6.5598 C.ar    
   7 C7            16.0989    12.0546     6.5679 C.ar    
   8 C8            14.8948    12.7328     6.5812 C.ar    
   9 O9            12.4348    10.1826     6.5909 O.3     
  10 C10           11.5820    11.2279     6.6047 C.2     
  11 C11           12.2832    12.3911     6.6101 C.2     
  12 C12           10.1159    11.1236     6.6177 C.2     
  13 O13            9.4345    12.1313     6.6292 O.2     
  14 N14            9.5265     9.9116     6.6168 N.am    
  15 N15            6.8341     8.6547     8.4048 N.3     
  16 C16            7.5577     9.8892     8.0723 C.3     
  17 C17            8.0653     9.8076     6.6298 C.3     
  18 C18            7.6404     8.4609     6.0310 C.3     
  19 C19            6.1106     8.3628     6.0839 C.3     
  20 C20            5.6573     8.4838     7.5415 C.3     
  21 C21            7.7201     7.4853     8.3238 C.3     
  22 C22            8.2328     7.3355     6.8887 C.3     
  23 N23           17.3017    12.7691     6.5614 N.pl3   
  24 O24           14.9739     8.5815     6.5593 O.3     
  25 C25           16.2629     7.9647     6.5444 C.3     
  26 H26           17.0641    10.1391     6.5485 H       
  27 H27           14.8798    13.8127     6.5868 H       
  28 H28           11.8792    13.3926     6.6210 H       
  29 H29           10.0698     9.1080     6.6077 H       
  30 H30            6.8872    10.7425     8.1742 H       
  31 H31            8.4037    10.0083     8.7493 H       
  32 H32            7.6342    10.6198     6.0444 H       
  33 H33            7.9856     8.3835     5.0000 H       
  34 H34            5.6724     9.1700     5.4970 H       
  35 H35            5.7921     7.4014     5.6810 H       
  36 H36            5.1214     7.5801     7.8319 H       
  37 H37            5.0000     9.3468     7.6476 H       
  38 H38            8.5646     7.6213     8.9993 H       
  39 H39            7.1673     6.5898     8.6077 H       
  40 H40            7.9228     6.3700     6.4890 H       
  41 H41            9.3206     7.4041     6.8805 H       
  42 H42           18.1477    12.2946     6.5513 H       
  43 H43           17.2898    13.7390     6.5671 H       
  44 H44           16.8206     8.2669     7.4309 H       
  45 H45           16.1470     6.8809     6.5400 H       
  46 H46           16.8043     8.2759     5.6510 H       
  47 Cl47          23.1477    18.8127    13.9993 Cl      
  48 H48           23.1477    20.1827    13.9993 H       
@<TRIPOS>BOND
   1    1    2 1
   2    3    4 ar
   3    3    8 ar
   4    3   11 1
   5    4    5 ar
   6    4    9 1
   7    5    6 ar
   8    5   24 1
   9    6    7 ar
  10    6   26 1
  11    7    8 ar
  12    7   23 1
  13    8   27 1
  14    9   10 1
  15   10   11 2
  16   10   12 1
  17   11   28 1
  18   12   13 2
  19   12   14 am
  20   14   17 1
  21   14   29 1
  22   15   16 1
  23   15   20 1
  24   15   21 1
  25   16   17 1
  26   16   30 1
  27   16   31 1
  28   17   18 1
  29   17   32 1
  30   18   19 1
  31   18   22 1
  32   18   33 1
  33   19   20 1
  34   19   34 1
  35   19   35 1
  36   20   36 1
  37   20   37 1
  38   21   22 1
  39   21   38 1
  40   21   39 1
  41   22   40 1
  42   22   41 1
  43   23   42 1
  44   23   43 1
  45   24   25 1
  46   25   44 1
  47   25   45 1
  48   25   46 1
  49   47   48 1

#	End of record

