#	Name: ASD02500663
#	Creating user name:	WinNT
#	Creation time:	15. 06. 2019 20:23

#	Modifying user name:	WinNT
#	Modification time:	15. 06. 2019 20:23

#	Program:	/corina/corina34_cracker 3.40 0067  02.08.2006

@<TRIPOS>MOLECULE
ASD02500663
  62   66    0    0    0
SMALL
NO_CHARGES


@<TRIPOS>ATOM
   1 N1            -3.5352     5.5766    -0.0129 N.ar    
   2 C2            -4.6608     6.2147    -0.2231 C.ar    
   3 C3            -5.7809     6.0097     0.5799 C.ar    
   4 C4            -5.7226     5.1240     1.6178 C.ar    
   5 C5            -4.5123     4.4402     1.8403 C.ar    
   6 C6            -4.3770     3.5154     2.8878 C.ar    
   7 C7            -3.1894     2.8746     3.0705 C.ar    
   8 C8            -2.1056     3.1249     2.2315 C.ar    
   9 C9            -2.2019     4.0151     1.2065 C.ar    
  10 C10           -3.4113     4.6965     0.9857 C.ar    
  11 S11           -0.8154     4.3131     0.1608 S.o2    
  12 O12           -0.6575     5.7239     0.0961 O.2     
  13 O13            0.2130     3.4353     0.5981 O.2     
  14 N14           -1.2354     3.8192    -1.3629 N.am    
  15 C15           -1.4422     2.4667    -1.6244 C.ar    
  16 C16           -1.1129     1.9402    -2.8752 C.ar    
  17 C17           -1.3175     0.6005    -3.1350 C.ar    
  18 C18           -1.8547    -0.2271    -2.1438 C.ar    
  19 C19           -2.1822     0.3053    -0.8943 C.ar    
  20 C20           -1.9708     1.6422    -0.6380 C.ar    
  21 O21           -0.5911     2.7477    -3.8372 O.3     
  22 C22           -0.2776     2.1419    -5.0929 C.3     
  23 C23           -2.0755    -1.6599    -2.4173 C.2     
  24 O24           -2.5072    -2.0131    -3.4978 O.2     
  25 N25           -1.7989    -2.5773    -1.4696 N.am    
  26 C26           -1.9247    -4.0153    -1.7514 C.3     
  27 C27           -0.6229    -4.7086    -1.3356 C.3     
  28 N28           -0.3183    -4.3739     0.0619 N.3     
  29 C29           -0.0834    -2.9331     0.2257 C.3     
  30 C30           -1.3572    -2.1672    -0.1279 C.3     
  31 C31            0.8264    -5.1530     0.5524 C.3     
  32 C32            1.2702    -4.6072     1.9111 C.3     
  33 C33            2.3798    -5.3609     2.6470 C.3     
  34 C34            2.6726    -4.0029     2.0058 C.3     
  35 H35           -4.7214     6.9182    -1.0403 H       
  36 H36           -6.6942     6.5511     0.3819 H       
  37 H37           -6.5811     4.9531     2.2504 H       
  38 H38           -5.2098     3.3135     3.5452 H       
  39 H39           -3.0861     2.1633     3.8765 H       
  40 H40           -1.1740     2.6044     2.3975 H       
  41 H41           -1.3374     4.4716    -2.0734 H       
  42 H42           -1.0636     0.1919    -4.1019 H       
  43 H43           -2.5974    -0.3322    -0.1279 H       
  44 H44           -2.2203     2.0514     0.3298 H       
  45 H45            0.1298     2.8947    -5.7679 H       
  46 H46            0.4590     1.3527    -4.9418 H       
  47 H47           -1.1823     1.7163    -5.5269 H       
  48 H48           -2.7575    -4.4285    -1.1823 H       
  49 H49           -2.0955    -4.1660    -2.8173 H       
  50 H50           -0.7381    -5.7880    -1.4343 H       
  51 H51            0.1907    -4.3692    -1.9766 H       
  52 H52            0.1927    -2.7247     1.2594 H       
  53 H53            0.7227    -2.6183    -0.4370 H       
  54 H54           -1.1530    -1.0965    -0.1211 H       
  55 H55           -2.1344    -2.3992     0.6002 H       
  56 H56            0.5359    -6.1983     0.6580 H       
  57 H57            1.6500    -5.0747    -0.1572 H       
  58 H58            0.4844    -4.1531     2.5147 H       
  59 H59            2.3242    -5.4024     3.7348 H       
  60 H60            2.7937    -6.2456     2.1631 H       
  61 H61            3.2791    -3.9943     1.1001 H       
  62 H62            2.8097    -3.1510     2.6718 H       
@<TRIPOS>BOND
   1    1    2 ar
   2    1   10 ar
   3    2    3 ar
   4    2   35 1
   5    3    4 ar
   6    3   36 1
   7    4    5 ar
   8    4   37 1
   9    5    6 ar
  10    5   10 ar
  11    6    7 ar
  12    6   38 1
  13    7    8 ar
  14    7   39 1
  15    8    9 ar
  16    8   40 1
  17    9   10 ar
  18    9   11 1
  19   11   12 2
  20   11   13 2
  21   11   14 am
  22   14   15 1
  23   14   41 1
  24   15   16 ar
  25   15   20 ar
  26   16   17 ar
  27   16   21 1
  28   17   18 ar
  29   17   42 1
  30   18   19 ar
  31   18   23 1
  32   19   20 ar
  33   19   43 1
  34   20   44 1
  35   21   22 1
  36   22   45 1
  37   22   46 1
  38   22   47 1
  39   23   24 2
  40   23   25 am
  41   25   26 1
  42   25   30 1
  43   26   27 1
  44   26   48 1
  45   26   49 1
  46   27   28 1
  47   27   50 1
  48   27   51 1
  49   28   29 1
  50   28   31 1
  51   29   30 1
  52   29   52 1
  53   29   53 1
  54   30   54 1
  55   30   55 1
  56   31   32 1
  57   31   56 1
  58   31   57 1
  59   32   33 1
  60   32   34 1
  61   32   58 1
  62   33   34 1
  63   33   59 1
  64   33   60 1
  65   34   61 1
  66   34   62 1

#	End of record

