#	Name: ASD01912531
#	Creating user name:	WinNT
#	Creation time:	15. 06. 2019 19:59

#	Modifying user name:	WinNT
#	Modification time:	15. 06. 2019 19:59

#	Program:	/corina/corina34_cracker 3.40 0067  02.08.2006

@<TRIPOS>MOLECULE
ASD01912531
  29   30    0    0    0
SMALL
NO_CHARGES


@<TRIPOS>ATOM
   1 C1            -0.0169     1.3969     0.0097 C.ar    
   2 C2             0.0021    -0.0041     0.0020 C.ar    
   3 C3             1.2456    -0.6493    -0.0133 C.ar    
   4 N4             2.3457     0.0817    -0.0199 N.ar    
   5 C5             2.2840     1.4041    -0.0122 C.ar    
   6 N6             1.1298     2.0523     0.0023 N.ar    
   7 C7            -1.2165    -0.7561     0.0101 C.1     
   8 C8            -2.2156    -1.3726     0.0167 C.1     
   9 C9            -3.4342    -2.1246     0.0248 C.ar    
  10 C10           -3.3973    -3.5215     0.0169 C.ar    
  11 C11           -4.6660    -1.4652     0.0464 C.ar    
  12 C12           -5.8356    -2.1961     0.0545 C.ar    
  13 C13           -5.7913    -3.5791     0.0413 C.ar    
  14 C14           -4.5751    -4.2391     0.0252 C.ar    
  15 O15            3.4366     2.1153    -0.0189 O.3     
  16 C16            3.3201     3.5395    -0.0102 C.3     
  17 C17            4.7162     4.1655    -0.0196 C.3     
  18 H18           -0.9547     1.9325     0.0171 H       
  19 H19            1.3038    -1.7278    -0.0193 H       
  20 H20           -2.4488    -4.0379     0.0040 H       
  21 H21           -4.7021    -0.3858     0.0570 H       
  22 H22           -6.7884    -1.6878     0.0716 H       
  23 H23           -6.7103    -4.1463     0.0478 H       
  24 H24           -4.5481    -5.3187     0.0146 H       
  25 H25            2.7702     3.8645    -0.8934 H       
  26 H26            2.7865     3.8550     0.8864 H       
  27 H27            4.6273     5.2518    -0.0129 H       
  28 H28            5.2660     3.8405     0.8636 H       
  29 H29            5.2497     3.8501    -0.9162 H       
@<TRIPOS>BOND
   1    1    2 ar
   2    1    6 ar
   3    1   18 1
   4    2    3 ar
   5    2    7 1
   6    3    4 ar
   7    3   19 1
   8    4    5 ar
   9    5    6 ar
  10    5   15 1
  11    7    8 3
  12    8    9 1
  13    9   10 ar
  14    9   11 ar
  15   10   14 ar
  16   10   20 1
  17   11   12 ar
  18   11   21 1
  19   12   13 ar
  20   12   22 1
  21   13   14 ar
  22   13   23 1
  23   14   24 1
  24   15   16 1
  25   16   17 1
  26   16   25 1
  27   16   26 1
  28   17   27 1
  29   17   28 1
  30   17   29 1

#	End of record

