#	Name: ASD01020016
#	Creating user name:	WinNT
#	Creation time:	15. 06. 2019 18:56

#	Modifying user name:	WinNT
#	Modification time:	15. 06. 2019 18:56

#	Program:	/corina/corina34_cracker 3.40 0067  02.08.2006

@<TRIPOS>MOLECULE
ASD01020016
  67   72    0    0    0
SMALL
NO_CHARGES


@<TRIPOS>ATOM
   1 C1            -4.7054    -0.0156     2.3906 C.3     
   2 N2            -3.9985    -1.2590     2.0554 N.3     
   3 C3            -2.5892    -0.9936     1.7348 C.3     
   4 C4            -1.9096    -2.2991     1.3151 C.3     
   5 N5            -2.0234    -3.2796     2.4039 N.3     
   6 C6            -3.4328    -3.5450     2.7246 C.3     
   7 C7            -4.1123    -2.2394     3.1442 C.3     
   8 C8            -1.3519    -4.4609     2.0855 C.ar    
   9 C9            -0.6907    -4.5769     0.8681 C.ar    
  10 C10           -0.0264    -5.7427     0.5518 C.ar    
  11 C11           -0.0180    -6.8056     1.4536 C.ar    
  12 C12           -0.6816    -6.6872     2.6738 C.ar    
  13 C13           -1.3402    -5.5178     2.9884 C.ar    
  14 C14            0.6959    -8.0614     1.1151 C.ar    
  15 C15            1.3637    -8.1763    -0.1036 C.ar    
  16 C16            2.0300    -9.3455    -0.4209 C.ar    
  17 C17            2.0358   -10.3995     0.4646 C.ar    
  18 C18            2.6511   -11.7765     0.4236 C.3     
  19 N19            2.2898   -12.4260     1.6886 N.am    
  20 C20            2.6720   -13.7818     2.0909 C.3     
  21 H21            2.3442   -13.9631     3.1145 H       
  22 C22            2.0204   -14.7814     1.1703 C.2     
  23 O23            1.3070   -14.3989     0.2672 O.2     
  24 N24            2.2304   -16.1004     1.3507 N.am    
  25 C25            1.6294   -17.0224     0.5017 C.2     
  26 N26            0.8564   -16.7207    -0.4942 N.2     
  27 C27            0.3697   -17.7253    -1.1985 C.2     
  28 C28            0.7496   -18.9333    -0.7776 C.2     
  29 S29            1.8080   -18.7190     0.6143 S.3     
  30 C30            4.1698   -13.9264     2.0100 C.ar    
  31 C31            4.8249   -13.6780     0.8183 C.ar    
  32 C32            6.1988   -13.8106     0.7441 C.ar    
  33 C33            6.9178   -14.1912     1.8618 C.ar    
  34 C34            6.2629   -14.4387     3.0537 C.ar    
  35 C35            4.8894   -14.3019     3.1290 C.ar    
  36 C36            1.5512   -11.5722     2.4180 C.2     
  37 O37            1.0961   -11.8130     3.5191 O.2     
  38 C38            1.3713   -10.3007     1.6906 C.ar    
  39 C39            0.7033    -9.1213     2.0162 C.ar    
  40 H40           -4.2748     0.4147     3.2948 H       
  41 H41           -4.6051     0.6924     1.5680 H       
  42 H42           -5.7606    -0.2313     2.5578 H       
  43 H43           -2.5313    -0.2745     0.9177 H       
  44 H44           -2.0866    -0.5879     2.6129 H       
  45 H45           -2.3948    -2.6906     0.4211 H       
  46 H46           -0.8570    -2.1099     1.1047 H       
  47 H47           -3.9353    -3.9506     1.8465 H       
  48 H48           -3.4906    -4.2641     3.5417 H       
  49 H49           -3.6271    -1.8479     4.0383 H       
  50 H50           -5.1650    -2.4286     3.3546 H       
  51 H51           -0.6977    -3.7533     0.1695 H       
  52 H52            0.4869    -5.8326    -0.3942 H       
  53 H53           -0.6766    -7.5097     3.3737 H       
  54 H54           -1.8508    -5.4240     3.9355 H       
  55 H55            1.3602    -7.3512    -0.8005 H       
  56 H56            2.5466    -9.4322    -1.3654 H       
  57 H57            2.2477   -12.3420    -0.4163 H       
  58 H58            3.7350   -11.6999     0.3382 H       
  59 H59            2.8009   -16.4063     2.0731 H       
  60 H60           -0.2831   -17.5813    -2.0467 H       
  61 H61            0.4620   -19.8773    -1.2164 H       
  62 H62            4.2631   -13.3807    -0.0549 H       
  63 H63            6.7105   -13.6172    -0.1871 H       
  64 H64            7.9912   -14.2955     1.8036 H       
  65 H65            6.8246   -14.7364     3.9268 H       
  66 H66            4.3781   -14.4916     4.0612 H       
  67 H67            0.1900    -9.0323     2.9623 H       
@<TRIPOS>BOND
   1    1    2 1
   2    1   40 1
   3    1   41 1
   4    1   42 1
   5    2    7 1
   6    2    3 1
   7    3    4 1
   8    3   43 1
   9    3   44 1
  10    4    5 1
  11    4   45 1
  12    4   46 1
  13    5    6 1
  14    5    8 1
  15    6    7 1
  16    6   47 1
  17    6   48 1
  18    7   49 1
  19    7   50 1
  20    8   13 ar
  21    8    9 ar
  22    9   10 ar
  23    9   51 1
  24   10   11 ar
  25   10   52 1
  26   11   12 ar
  27   11   14 1
  28   12   13 ar
  29   12   53 1
  30   13   54 1
  31   14   39 ar
  32   14   15 ar
  33   15   16 ar
  34   15   55 1
  35   16   17 ar
  36   16   56 1
  37   17   38 ar
  38   17   18 1
  39   18   19 1
  40   18   57 1
  41   18   58 1
  42   19   20 1
  43   19   36 am
  44   20   21 1
  45   20   22 1
  46   20   30 1
  47   22   23 2
  48   22   24 am
  49   24   25 1
  50   24   59 1
  51   25   29 1
  52   25   26 2
  53   26   27 1
  54   27   28 2
  55   27   60 1
  56   28   29 1
  57   28   61 1
  58   30   35 ar
  59   30   31 ar
  60   31   32 ar
  61   31   62 1
  62   32   33 ar
  63   32   63 1
  64   33   34 ar
  65   33   64 1
  66   34   35 ar
  67   34   65 1
  68   35   66 1
  69   36   37 2
  70   36   38 1
  71   38   39 ar
  72   39   67 1

#	End of record

