#	Name: ASD01420037
#	Creating user name:	WinNT
#	Creation time:	15. 06. 2019 19:20

#	Modifying user name:	WinNT
#	Modification time:	15. 06. 2019 19:20

#	Program:	/corina/corina34_cracker 3.40 0067  02.08.2006

@<TRIPOS>MOLECULE
ASD01420037
  62   65    0    0    0
SMALL
NO_CHARGES


@<TRIPOS>ATOM
   1 C1            -0.1610     1.4436     0.2586 C.3     
   2 N2            -0.0083    -0.0100     0.0220 N.3     
   3 C3             1.2453    -0.1127    -0.7589 C.3     
   4 C4             2.0755     1.0852    -0.3578 C.ar    
   5 C5             3.4273     1.3611    -0.4974 C.ar    
   6 C6             3.9399     2.5628    -0.0311 C.ar    
   7 C7             3.1027     3.4821     0.5714 C.ar    
   8 C8             1.7553     3.2054     0.7096 C.ar    
   9 C9             1.2412     2.0089     0.2461 C.ar    
  10 O10            4.2490     0.4551    -1.0898 O.3     
  11 C11            5.6298     0.8061    -1.1996 C.3     
  12 C12            6.3912    -0.3285    -1.8881 C.3     
  13 C13            7.8697     0.0473    -2.0057 C.3     
  14 N14            8.6007    -1.0420    -2.6667 N.3     
  15 C15            9.9681    -0.6260    -3.0110 C.3     
  16 C16           10.7114    -1.8064    -3.6417 C.3     
  17 O17            9.9824    -2.2677    -4.7824 O.3     
  18 C18            8.6466    -2.6815    -4.4832 C.3     
  19 C19            7.8824    -1.5099    -3.8610 C.3     
  20 C20           -1.1472    -0.5421    -0.7381 C.3     
  21 C21           -0.9105    -1.9986    -1.0439 C.ar    
  22 C22           -1.0343    -2.9473    -0.0384 C.ar    
  23 C23           -0.8164    -4.2868    -0.3203 C.ar    
  24 C24           -0.4752    -4.6756    -1.6068 C.ar    
  25 C25           -0.3527    -3.7234    -2.6085 C.ar    
  26 C26           -0.5759    -2.3891    -2.3262 C.ar    
  27 O27           -0.2606    -5.9881    -1.8862 O.3     
  28 C28            0.0876    -6.3163    -3.2327 C.3     
  29 O29           -1.3684    -2.5631     1.2216 O.3     
  30 C30           -1.4782    -3.5930     2.2062 C.3     
  31 H31           -0.7557     1.8940    -0.5361 H       
  32 H32           -0.6295     1.6203     1.2268 H       
  33 H33            1.7699    -1.0350    -0.5093 H       
  34 H34            1.0277    -0.0797    -1.8265 H       
  35 H35            4.9925     2.7794    -0.1385 H       
  36 H36            3.5014     4.4177     0.9349 H       
  37 H37            1.1030     3.9254     1.1813 H       
  38 H38            5.7271     1.7184    -1.7881 H       
  39 H39            6.0434     0.9697    -0.2045 H       
  40 H40            6.2939    -1.2408    -1.2997 H       
  41 H41            5.9777    -0.4921    -2.8832 H       
  42 H42            7.9670     0.9596    -2.5941 H       
  43 H43            8.2833     0.2110    -1.0106 H       
  44 H44            9.9293     0.2007    -3.7203 H       
  45 H45           10.4898    -0.3077    -2.1084 H       
  46 H46           11.7066    -1.4868    -3.9507 H       
  47 H47           10.7972    -2.6134    -2.9140 H       
  48 H48            8.1484    -2.9947    -5.4008 H       
  49 H49            8.6723    -3.5139    -3.7799 H       
  50 H50            6.8815    -1.8369    -3.5789 H       
  51 H51            7.8102    -0.6974    -4.5840 H       
  52 H52           -2.0580    -0.4380    -0.1484 H       
  53 H53           -1.2526     0.0125    -1.6705 H       
  54 H54           -0.9119    -5.0265     0.4608 H       
  55 H55           -0.0869    -4.0257    -3.6107 H       
  56 H56           -0.4844    -1.6499    -3.1082 H       
  57 H57            0.2307    -7.3934    -3.3188 H       
  58 H58           -0.7131    -6.0015    -3.9020 H       
  59 H59            1.0106    -5.8042    -3.5044 H       
  60 H60           -2.2464    -4.3046     1.9036 H       
  61 H61           -0.5224    -4.1085     2.3009 H       
  62 H62           -1.7494    -3.1514     3.1651 H       
@<TRIPOS>BOND
   1    1    2 1
   2    1    9 1
   3    1   31 1
   4    1   32 1
   5    2    3 1
   6    2   20 1
   7    3    4 1
   8    3   33 1
   9    3   34 1
  10    4    5 ar
  11    4    9 ar
  12    5    6 ar
  13    5   10 1
  14    6    7 ar
  15    6   35 1
  16    7    8 ar
  17    7   36 1
  18    8    9 ar
  19    8   37 1
  20   10   11 1
  21   11   12 1
  22   11   38 1
  23   11   39 1
  24   12   13 1
  25   12   40 1
  26   12   41 1
  27   13   14 1
  28   13   42 1
  29   13   43 1
  30   14   15 1
  31   14   19 1
  32   15   16 1
  33   15   44 1
  34   15   45 1
  35   16   17 1
  36   16   46 1
  37   16   47 1
  38   17   18 1
  39   18   19 1
  40   18   48 1
  41   18   49 1
  42   19   50 1
  43   19   51 1
  44   20   21 1
  45   20   52 1
  46   20   53 1
  47   21   22 ar
  48   21   26 ar
  49   22   23 ar
  50   22   29 1
  51   23   24 ar
  52   23   54 1
  53   24   25 ar
  54   24   27 1
  55   25   26 ar
  56   25   55 1
  57   26   56 1
  58   27   28 1
  59   28   57 1
  60   28   58 1
  61   28   59 1
  62   29   30 1
  63   30   60 1
  64   30   61 1
  65   30   62 1

#	End of record

