#	Name: ASD01900138
#	Creating user name:	WinNT
#	Creation time:	15. 06. 2019 19:51

#	Modifying user name:	WinNT
#	Modification time:	15. 06. 2019 19:51

#	Program:	/corina/corina34_cracker 3.40 0067  02.08.2006

@<TRIPOS>MOLECULE
ASD01900138
  41   43    0    0    0
SMALL
NO_CHARGES


@<TRIPOS>ATOM
   1 C1            -0.0103     1.3772     0.1441 C.2     
   2 C2             0.0215     0.2000     0.8105 C.2     
   3 C3            -1.3084    -0.1654     1.0667 C.2     
   4 C4            -2.0954     0.8182     0.5379 C.2     
   5 O5            -1.2877     1.7488    -0.0128 O.3     
   6 C6            -3.5598     0.8586     0.5684 C.2     
   7 N7            -4.2172     1.8923     0.0066 N.am    
   8 O8            -4.1825    -0.0415     1.1012 O.2     
   9 C9            -5.6152     1.8784    -0.0619 C.ar    
  10 C10           -6.3280     3.0628     0.0687 C.ar    
  11 C11           -7.7109     3.0484     0.0004 C.ar    
  12 C12           -8.3841     1.8449    -0.1992 C.ar    
  13 C13           -7.6680     0.6637    -0.3291 C.ar    
  14 C14           -6.2883     0.6807    -0.2660 C.ar    
  15 N15           -9.7843     1.8275    -0.2682 N.am    
  16 C16          -10.4602     0.7026     0.0386 C.2     
  17 O17           -8.4110     4.2069     0.1284 O.3     
  18 C18           -7.6552     5.4026     0.3313 C.3     
  19 C19          -11.9242     0.6453    -0.1516 C.ar    
  20 O20           -9.8651    -0.2651     0.4719 O.2     
  21 C21          -12.6281    -0.5191     0.1654 C.ar    
  22 C22          -13.9970    -0.5649    -0.0152 C.ar    
  23 C23          -14.6693     0.5380    -0.5088 C.ar    
  24 C24          -13.9772     1.6944    -0.8251 C.ar    
  25 C25          -12.6117     1.7567    -0.6436 C.ar    
  26 Cl26         -11.7849    -1.9047     0.7840 Cl      
  27 Br27           1.4997     2.3427    -0.4589 Br      
  28 H28            0.9047    -0.3542     1.0919 H       
  29 H29           -1.6450    -1.0529     1.5819 H       
  30 H30           -3.7216     2.6458    -0.3504 H       
  31 H31           -5.8043     3.9945     0.2237 H       
  32 H32           -8.1896    -0.2693    -0.4835 H       
  33 H33           -5.7325    -0.2398    -0.3673 H       
  34 H34          -10.2666     2.6251    -0.5368 H       
  35 H35           -7.0698     5.3115     1.2463 H       
  36 H36           -6.9855     5.5571    -0.5147 H       
  37 H37           -8.3339     6.2512     0.4171 H       
  38 H38          -14.5431    -1.4640     0.2292 H       
  39 H39          -15.7394     0.4969    -0.6485 H       
  40 H40          -14.5090     2.5518    -1.2105 H       
  41 H41          -12.0736     2.6598    -0.8910 H       
@<TRIPOS>BOND
   1    1    2 2
   2    1   27 1
   3    1    5 1
   4    2    3 1
   5    2   28 1
   6    3    4 2
   7    3   29 1
   8    4    5 1
   9    4    6 1
  10    6    7 am
  11    6    8 2
  12    7    9 1
  13    7   30 1
  14    9   10 ar
  15    9   14 ar
  16   10   11 ar
  17   10   31 1
  18   11   12 ar
  19   11   17 1
  20   12   13 ar
  21   12   15 1
  22   13   14 ar
  23   13   32 1
  24   14   33 1
  25   15   16 am
  26   15   34 1
  27   16   19 1
  28   16   20 2
  29   17   18 1
  30   18   35 1
  31   18   36 1
  32   18   37 1
  33   19   21 ar
  34   19   25 ar
  35   21   22 ar
  36   21   26 1
  37   22   23 ar
  38   22   38 1
  39   23   24 ar
  40   23   39 1
  41   24   25 ar
  42   24   40 1
  43   25   41 1

#	End of record

