#	Name: ASD01811873
#	Creating user name:	WinNT
#	Creation time:	15. 06. 2019 19:27

#	Modifying user name:	WinNT
#	Modification time:	15. 06. 2019 19:27

#	Program:	/corina/corina34_cracker 3.40 0067  02.08.2006

@<TRIPOS>MOLECULE
ASD01811873
  55   59    0    0    0
SMALL
NO_CHARGES


@<TRIPOS>ATOM
   1 N1            -0.0158     1.3118     0.0093 N.ar    
   2 C2             0.0021    -0.0041     0.0020 C.ar    
   3 C3             1.1978    -0.7085    -0.0132 C.ar    
   4 C4             2.3976    -0.0225    -0.0210 C.ar    
   5 C5             1.1069     2.0152     0.0023 C.ar    
   6 C6             1.4405     3.4466     0.0063 C.2     
   7 C7             2.3592     1.3695    -0.0131 C.ar    
   8 N8             3.3027     2.3623    -0.0168 N.pl3   
   9 N9             2.7542     3.5232    -0.0060 N.2     
  10 C10            0.4912     4.5737     0.0213 C.2     
  11 O11           -0.7060     4.3603     0.0318 O.2     
  12 N12            0.9498     5.8411     0.0233 N.am    
  13 C13            4.7491     2.1301    -0.0319 C.3     
  14 C14            5.2314     2.0581    -1.4578 C.ar    
  15 C15            5.6988     0.7736    -3.4238 C.ar    
  16 C16            5.2569     0.8428    -2.1171 C.ar    
  17 C17            5.6423     3.2083    -2.1061 C.ar    
  18 C18            6.0844     3.1456    -3.4131 C.ar    
  19 C19            6.1165     1.9260    -4.0759 C.ar    
  20 N20            6.5656     1.8590    -5.4021 N.pl3   
  21 C21            6.9979     2.8997    -6.1495 C.2     
  22 C22            7.3411     2.4180    -7.3666 C.2     
  23 C23            7.1116     1.0378    -7.3640 C.2     
  24 N24            6.6519     0.7011    -6.1858 N.2     
  25 C25            0.0061     6.9615     0.0381 C.3     
  26 C26           -0.7248     9.6689     0.8864 C.3     
  27 C27           -0.3140     9.3671    -0.5562 C.3     
  28 C28            0.6715     8.1969    -0.5717 C.3     
  29 C29           -0.4047     7.2633     1.4807 C.3     
  30 C30           -1.3902     8.4335     1.4962 C.3     
  31 O31            1.0552     7.9151    -1.9191 O.3     
  32 H32           -0.9319    -0.5463     0.0084 H       
  33 H33            1.1908    -1.7885    -0.0186 H       
  34 H34            3.3391    -0.5515    -0.0324 H       
  35 H35            1.9047     6.0113     0.0149 H       
  36 H36            5.2539     2.9484     0.4815 H       
  37 H37            4.9716     1.1910     0.4747 H       
  38 H38            5.7188    -0.1758    -3.9381 H       
  39 H39            4.9312    -0.0531    -1.6096 H       
  40 H40            5.6171     4.1567    -1.5900 H       
  41 H41            6.4046     4.0444    -3.9192 H       
  42 H42            7.0580     3.9303    -5.8322 H       
  43 H43            7.7246     2.9968    -8.1939 H       
  44 H44            7.2872     0.3654    -8.1907 H       
  45 H45           -0.8775     6.7001    -0.5441 H       
  46 H46            0.1588     9.9303     1.4686 H       
  47 H47           -1.4269    10.5025     0.8974 H       
  48 H48           -1.1976     9.1057    -1.1385 H       
  49 H49            0.1600    10.2472    -0.9907 H       
  50 H50            1.5551     8.4584     0.0105 H       
  51 H51           -0.8787     6.3832     1.9152 H       
  52 H52            0.4789     7.5247     2.0630 H       
  53 H53           -1.6829     8.6485     2.5240 H       
  54 H54           -2.2738     8.1720     0.9140 H       
  55 H55            1.4844     8.6557    -2.3689 H       
@<TRIPOS>BOND
   1    1    2 ar
   2    1    5 ar
   3    2    3 ar
   4    2   32 1
   5    3    4 ar
   6    3   33 1
   7    4    7 ar
   8    4   34 1
   9    5    7 ar
  10    5    6 1
  11    6    9 2
  12    6   10 1
  13    7    8 1
  14    8    9 1
  15    8   13 1
  16   10   11 2
  17   10   12 am
  18   12   25 1
  19   12   35 1
  20   13   14 1
  21   13   36 1
  22   13   37 1
  23   14   17 ar
  24   14   16 ar
  25   15   16 ar
  26   15   19 ar
  27   15   38 1
  28   16   39 1
  29   17   18 ar
  30   17   40 1
  31   18   19 ar
  32   18   41 1
  33   19   20 1
  34   20   21 1
  35   20   24 1
  36   21   22 2
  37   21   42 1
  38   22   23 1
  39   22   43 1
  40   23   24 2
  41   23   44 1
  42   25   29 1
  43   25   28 1
  44   25   45 1
  45   26   27 1
  46   26   30 1
  47   26   46 1
  48   26   47 1
  49   27   28 1
  50   27   48 1
  51   27   49 1
  52   28   31 1
  53   28   50 1
  54   29   30 1
  55   29   51 1
  56   29   52 1
  57   30   53 1
  58   30   54 1
  59   31   55 1

#	End of record

