#	Name: ASD02038842
#	Creating user name:	WinNT
#	Creation time:	15. 06. 2019 20:17

#	Modifying user name:	WinNT
#	Modification time:	15. 06. 2019 20:17

#	Program:	/corina/corina34_cracker 3.40 0067  02.08.2006

@<TRIPOS>MOLECULE
ASD02038842
  43   45    0    0    0
SMALL
NO_CHARGES


@<TRIPOS>ATOM
   1 C1            -1.2779    -0.8487     0.4648 C.2     
   2 C2            -0.0609    -0.0346     0.3014 C.2     
   3 N3             1.1367    -0.6349     0.1537 N.am    
   4 C4             1.2422    -2.0929     0.2509 C.3     
   5 C5             1.2147    -2.6919    -1.1316 C.ar    
   6 C6             2.3330     0.1705    -0.1041 C.3     
   7 O7            -0.1370     1.1792     0.2998 O.2     
   8 N8            -1.3380    -2.2046     0.4962 N.2     
   9 C9            -2.5781    -2.5674     0.6544 C.2     
  10 N10           -3.3575    -1.4573     0.7301 N.pl3   
  11 C11           -2.5489    -0.3774     0.6180 C.2     
  12 C12            2.3988    -3.0137    -1.7686 C.ar    
  13 C13            2.1205     1.0146    -1.3645 C.3     
  14 C14            3.3430     1.9102    -1.5815 C.3     
  15 O15            3.5429     2.7290    -0.4275 O.3     
  16 C16            3.7935     1.9947     0.7726 C.3     
  17 C17            2.5890     1.1025     1.0842 C.3     
  18 C18            0.0054    -2.9243    -1.7595 C.ar    
  19 C19           -0.0217    -3.4745    -3.0273 C.ar    
  20 C20            1.1629    -3.7925    -3.6688 C.ar    
  21 C21            2.3746    -3.5633    -3.0370 C.ar    
  22 Br22           3.9944    -3.9963    -3.9115 Br      
  23 C23           -4.8115    -1.4331     0.9076 C.3     
  24 F24            1.1375    -4.3303    -4.9079 F       
  25 H25            2.1782    -2.3574     0.7429 H       
  26 H26            0.4046    -2.4799     0.8313 H       
  27 H27            3.1912    -0.4864    -0.2456 H       
  28 H28           -2.9306    -3.5865     0.7152 H       
  29 H29           -2.8527     0.6588     0.6384 H       
  30 H30            3.3429    -2.8354    -1.2754 H       
  31 H31            1.9925     0.3583    -2.2252 H       
  32 H32            1.2321     1.6343    -1.2424 H       
  33 H33            4.2242     1.2895    -1.7438 H       
  34 H34            3.1792     2.5441    -2.4530 H       
  35 H35            4.6805     1.3750     0.6411 H       
  36 H36            3.9541     2.6894     1.5970 H       
  37 H37            1.7101     1.7239     1.2557 H       
  38 H38            2.7961     0.5090     1.9747 H       
  39 H39           -0.9190    -2.6763    -1.2590 H       
  40 H40           -0.9669    -3.6566    -3.5171 H       
  41 H41           -5.0473    -1.4085     1.9715 H       
  42 H42           -5.2219    -0.5466     0.4240 H       
  43 H43           -5.2472    -2.3260     0.4594 H       
@<TRIPOS>BOND
   1    1    2 1
   2    1    8 1
   3    1   11 2
   4    2    3 am
   5    2    7 2
   6    3    4 1
   7    3    6 1
   8    4    5 1
   9    4   25 1
  10    4   26 1
  11    5   12 ar
  12    5   18 ar
  13    6   13 1
  14    6   17 1
  15    6   27 1
  16    8    9 2
  17    9   10 1
  18    9   28 1
  19   10   11 1
  20   10   23 1
  21   11   29 1
  22   12   21 ar
  23   12   30 1
  24   13   14 1
  25   13   31 1
  26   13   32 1
  27   14   15 1
  28   14   33 1
  29   14   34 1
  30   15   16 1
  31   16   17 1
  32   16   35 1
  33   16   36 1
  34   17   37 1
  35   17   38 1
  36   18   19 ar
  37   18   39 1
  38   19   20 ar
  39   19   40 1
  40   20   21 ar
  41   20   24 1
  42   21   22 1
  43   23   41 1
  44   23   42 1
  45   23   43 1

#	End of record

