#	Name: ASD01814229
#	Creating user name:	WinNT
#	Creation time:	15. 06. 2019 19:31

#	Modifying user name:	WinNT
#	Modification time:	15. 06. 2019 19:31

#	Program:	/corina/corina34_cracker 3.40 0067  02.08.2006

@<TRIPOS>MOLECULE
ASD01814229
  41   44    0    0    0
SMALL
NO_CHARGES


@<TRIPOS>ATOM
   1 C1            -0.0167     1.3820     0.0096 C.ar    
   2 C2             0.0021    -0.0041     0.0020 C.ar    
   3 C3             1.1959    -0.6932    -0.0130 C.ar    
   4 C4             2.4016     0.0019    -0.0208 C.ar    
   5 C5             2.3831     1.4075    -0.0131 C.ar    
   6 C6             1.1665     2.0939     0.0022 C.ar    
   7 N7             3.6010    -0.6771    -0.0354 N.pl3   
   8 C8             4.7870    -0.0549    -0.0424 C.2     
   9 C9             4.8957     1.3208    -0.0361 C.2     
  10 C10            3.6667     2.1313    -0.0214 C.2     
  11 C11            6.2161     1.9660    -0.0437 C.2     
  12 O12            6.3092     3.3109    -0.0374 O.3     
  13 O13            7.2243     1.2870    -0.0558 O.2     
  14 O14            3.7090     3.3491    -0.0157 O.2     
  15 C15            3.5775    -2.1419    -0.0430 C.3     
  16 C16            3.5565    -2.6366    -1.4663 C.2     
  17 N17            2.4849    -2.7761    -2.1912 N.2     
  18 C18            2.8226    -3.2413    -3.4213 C.ar    
  19 C19            4.2191    -3.3934    -3.4326 C.ar    
  20 N20            4.6553    -2.9968    -2.1821 N.pl3   
  21 C21            2.0855    -3.5623    -4.5645 C.ar    
  22 C22            2.7358    -4.0245    -5.6908 C.ar    
  23 C23            4.1202    -4.1725    -5.6943 C.ar    
  24 C24            4.8579    -3.8594    -4.5735 C.ar    
  25 F25            1.1476     3.4448     0.0096 F       
  26 O26            2.0200    -4.3376    -6.8037 O.3     
  27 C27            2.7536    -4.8104    -7.9352 C.3     
  28 H28           -0.9604     1.9071     0.0169 H       
  29 H29           -0.9295    -0.5505     0.0083 H       
  30 H30            1.1956    -1.7731    -0.0185 H       
  31 H31            5.6884    -0.6497    -0.0531 H       
  32 H32            7.1990     3.6894    -0.0429 H       
  33 H33            4.4662    -2.5222     0.4608 H       
  34 H34            2.6865    -2.4937     0.4772 H       
  35 H35            5.5739    -2.9839    -1.8709 H       
  36 H36            1.0114    -3.4495    -4.5665 H       
  37 H37            4.6189    -4.5353    -6.5809 H       
  38 H38            5.9315    -3.9764    -4.5826 H       
  39 H39            3.4665    -4.0484    -8.2503 H       
  40 H40            3.2898    -5.7205    -7.6662 H       
  41 H41            2.0641    -5.0230    -8.7523 H       
@<TRIPOS>BOND
   1    1    2 ar
   2    1    6 ar
   3    1   28 1
   4    2    3 ar
   5    2   29 1
   6    3    4 ar
   7    3   30 1
   8    4    5 ar
   9    4    7 1
  10    5    6 ar
  11    5   10 1
  12    6   25 1
  13    7    8 1
  14    7   15 1
  15    8    9 2
  16    8   31 1
  17    9   10 1
  18    9   11 1
  19   10   14 2
  20   11   12 1
  21   11   13 2
  22   12   32 1
  23   15   16 1
  24   15   33 1
  25   15   34 1
  26   16   17 2
  27   16   20 1
  28   17   18 1
  29   18   19 ar
  30   18   21 ar
  31   19   20 1
  32   19   24 ar
  33   20   35 1
  34   21   22 ar
  35   21   36 1
  36   22   23 ar
  37   22   26 1
  38   23   24 ar
  39   23   37 1
  40   24   38 1
  41   26   27 1
  42   27   39 1
  43   27   40 1
  44   27   41 1

#	End of record

