#	Name: ASD01914037
#	Creating user name:	WinNT
#	Creation time:	15. 06. 2019 20:02

#	Modifying user name:	WinNT
#	Modification time:	15. 06. 2019 20:02

#	Program:	/corina/corina34_cracker 3.40 0067  02.08.2006

@<TRIPOS>MOLECULE
ASD01914037
  38   40    0    0    0
SMALL
NO_CHARGES


@<TRIPOS>ATOM
   1 C1            -0.0174     1.3808    -0.0017 C.ar    
   2 C2             0.0010    -0.0017    -0.0164 C.ar    
   3 C3             1.2061    -0.6792    -0.0354 C.ar    
   4 C4             2.3794     1.4111    -0.0250 C.ar    
   5 C5             1.1689     2.0886    -0.0060 C.ar    
   6 O6             3.5479     2.1051    -0.0288 O.3     
   7 C7             4.7558     1.3419    -0.0487 C.3     
   8 C8             5.9394     2.2746    -0.0501 C.ar    
   9 N9             7.1599     1.7740    -0.0673 N.ar    
  10 C10            8.2278     2.5446    -0.0697 C.ar    
  11 C11            8.1002     3.9341    -0.0539 C.ar    
  12 C12            6.8173     4.4953    -0.0355 C.ar    
  13 C13            5.7283     3.6419    -0.0390 C.ar    
  14 C14            9.2988     4.7989    -0.0562 C.2     
  15 N15           10.5281     4.2467    -0.0736 N.am    
  16 O16            9.1758     6.0081    -0.0423 O.2     
  17 C17            2.3952     0.0240    -0.0397 C.ar    
  18 C18           11.6549     5.0586    -0.1847 C.ar    
  19 C19           12.9221     4.4942    -0.0939 C.ar    
  20 C20           14.0328     5.3120    -0.2065 C.ar    
  21 C21           13.8367     6.6714    -0.4066 C.ar    
  22 C22           12.5490     7.1642    -0.4870 C.ar    
  23 N23           11.5090     6.3597    -0.3811 N.ar    
  24 H24           -0.9600     1.9077     0.0086 H       
  25 H25           -0.9275    -0.5532    -0.0127 H       
  26 H26            1.2179    -1.7591    -0.0465 H       
  27 H27            1.1540     3.1684     0.0051 H       
  28 H28            4.7970     0.7038     0.8340 H       
  29 H29            4.7798     0.7231    -0.9457 H       
  30 H30            9.2108     2.0974    -0.0837 H       
  31 H31            6.6814     5.5666    -0.0230 H       
  32 H32            4.7240     4.0388    -0.0251 H       
  33 H33           10.6284     3.2841    -0.0088 H       
  34 H34            3.3363    -0.5057    -0.0545 H       
  35 H35           13.0382     3.4319     0.0626 H       
  36 H36           15.0297     4.9018    -0.1397 H       
  37 H37           14.6823     7.3370    -0.4982 H       
  38 H38           12.3915     8.2213    -0.6427 H       
@<TRIPOS>BOND
   1    1    2 ar
   2    1    5 ar
   3    1   24 1
   4    2    3 ar
   5    2   25 1
   6    3   17 ar
   7    3   26 1
   8    4    5 ar
   9    4    6 1
  10    4   17 ar
  11    5   27 1
  12    6    7 1
  13    7    8 1
  14    7   28 1
  15    7   29 1
  16    8    9 ar
  17    8   13 ar
  18    9   10 ar
  19   10   11 ar
  20   10   30 1
  21   11   12 ar
  22   11   14 1
  23   12   13 ar
  24   12   31 1
  25   13   32 1
  26   14   15 am
  27   14   16 2
  28   15   18 1
  29   15   33 1
  30   17   34 1
  31   18   19 ar
  32   18   23 ar
  33   19   20 ar
  34   19   35 1
  35   20   21 ar
  36   20   36 1
  37   21   22 ar
  38   21   37 1
  39   22   23 ar
  40   22   38 1

#	End of record

