#	Name: ASD01810046
#	Creating user name:	WinNT
#	Creation time:	15. 06. 2019 19:23

#	Modifying user name:	WinNT
#	Modification time:	15. 06. 2019 19:23

#	Program:	/corina/corina34_cracker 3.40 0067  02.08.2006

@<TRIPOS>MOLECULE
ASD01810046
  74   81    0    0    0
SMALL
NO_CHARGES


@<TRIPOS>ATOM
   1 C1             0.2474     1.6286    -0.1178 C.ar    
   2 C2             0.1716     0.2162    -0.1166 C.ar    
   3 C3             1.3451    -0.5410    -0.1036 C.ar    
   4 C4             2.5908     0.0964    -0.0969 C.ar    
   5 C5             2.6615     1.4985    -0.1037 C.ar    
   6 C6             1.4915     2.2507    -0.1111 C.ar    
   7 N7             3.8737    -0.4299    -0.0814 N.pl3   
   8 C8             4.7862     0.5982    -0.0867 C.ar    
   9 C9             4.0884     1.8262    -0.1009 C.ar    
  10 C10            6.1804     0.5745    -0.0823 C.ar    
  11 C11            6.8319     1.7965    -0.0931 C.ar    
  12 C12            6.1456     2.9978    -0.1072 C.ar    
  13 C13            4.7614     3.0477    -0.1111 C.ar    
  14 C14           -0.9287    -0.7433    -0.1270 C.ar    
  15 C15           -0.3443    -2.0315    -0.1136 C.ar    
  16 N16            1.0214    -1.8948    -0.0979 N.pl3   
  17 C17           -2.3140    -0.5718    -0.1469 C.ar    
  18 C18           -3.0854    -1.7216    -0.1524 C.ar    
  19 C19           -2.5157    -2.9826    -0.1381 C.ar    
  20 C20           -1.1442    -3.1734    -0.1186 C.ar    
  21 C21            1.2268     3.7365    -0.1133 C.3     
  22 N22           -0.2323     3.8910    -0.1191 N.am    
  23 C23           -0.7922     2.6694    -0.1193 C.2     
  24 O24           -1.9892     2.4546    -0.1252 O.2     
  25 C25            2.0028    -2.9806    -0.0803 C.3     
  26 O26            3.2038    -2.6292    -0.7296 O.3     
  27 C27            4.1818    -1.8607    -0.0667 C.3     
  28 C28            2.2302    -3.4749     1.3427 C.3     
  29 C29            4.4372    -2.3399     1.3568 C.3     
  30 C30            3.1017    -2.4659     2.0990 C.3     
  31 C31            5.4939    -2.0452    -0.8317 C.3     
  32 H32            1.5694    -3.8132    -0.6344 H       
  33 O33            5.0850    -3.6131     1.3221 O.3     
  34 C34            5.3179    -1.3472     2.0709 C.2     
  35 O35            6.6533    -1.4461     1.9777 O.3     
  36 O36            4.8220    -0.4622     2.7272 O.2     
  37 C37            7.4391    -0.4555     2.6916 C.3     
  38 C38            8.9280    -0.7283     2.4686 C.3     
  39 C39            9.7559     0.3155     3.2208 C.3     
  40 C40           11.2448     0.0427     2.9978 C.3     
  41 C41           12.0728     1.0864     3.7501 C.3     
  42 C42           13.5617     0.8137     3.5271 C.3     
  43 H43            6.7283    -0.3562    -0.0706 H       
  44 H44            7.9118     1.8124    -0.0900 H       
  45 H45            6.7045     3.9219    -0.1156 H       
  46 H46            4.2289     3.9873    -0.1213 H       
  47 H47           -2.7625     0.4106    -0.1572 H       
  48 H48           -4.1615    -1.6319    -0.1678 H       
  49 H49           -3.1626    -3.8474    -0.1423 H       
  50 H50           -0.7130    -4.1635    -0.1073 H       
  51 H51            1.6487     4.1939     0.7816 H       
  52 H52            1.6556     4.1924    -1.0057 H       
  53 H53           -0.7124     4.7339    -0.1206 H       
  54 H54            1.2706    -3.5781     1.8494 H       
  55 H55            2.7332    -4.4415     1.3158 H       
  56 H56            2.6032    -1.4970     2.1269 H       
  57 H57            3.2771    -2.8197     3.1150 H       
  58 H58            6.3333    -1.8285    -0.1709 H       
  59 H59            5.5665    -3.0734    -1.1861 H       
  60 H60            5.5168    -1.3650    -1.6831 H       
  61 H61            5.2787    -3.9798     2.1957 H       
  62 H62            7.1925     0.5396     2.3213 H       
  63 H63            7.2148    -0.5127     3.7567 H       
  64 H64            9.1745    -1.7234     2.8389 H       
  65 H65            9.1522    -0.6711     1.4034 H       
  66 H66            9.5094     1.3105     2.8505 H       
  67 H67            9.5317     0.2583     4.2860 H       
  68 H68           11.4914    -0.9524     3.3681 H       
  69 H69           11.4691     0.0999     1.9327 H       
  70 H70           11.8263     2.0815     3.3798 H       
  71 H71           11.8485     1.0293     4.8152 H       
  72 H72           13.7860     0.8708     2.4619 H       
  73 H73           14.1516     1.5573     4.0630 H       
  74 H74           13.8082    -0.1814     3.8974 H       
@<TRIPOS>BOND
   1    1    2 ar
   2    1    6 ar
   3    1   23 1
   4    2    3 ar
   5    2   14 1
   6    3    4 ar
   7    3   16 1
   8    4    5 ar
   9    4    7 1
  10    5    6 ar
  11    5    9 1
  12    6   21 1
  13    7    8 1
  14    7   27 1
  15    8    9 ar
  16    8   10 ar
  17    9   13 ar
  18   10   11 ar
  19   10   43 1
  20   11   12 ar
  21   11   44 1
  22   12   13 ar
  23   12   45 1
  24   13   46 1
  25   14   15 ar
  26   14   17 ar
  27   15   16 1
  28   15   20 ar
  29   16   25 1
  30   17   18 ar
  31   17   47 1
  32   18   19 ar
  33   18   48 1
  34   19   20 ar
  35   19   49 1
  36   20   50 1
  37   21   22 1
  38   21   51 1
  39   21   52 1
  40   22   23 am
  41   22   53 1
  42   23   24 2
  43   25   26 1
  44   25   28 1
  45   25   32 1
  46   26   27 1
  47   27   29 1
  48   27   31 1
  49   28   30 1
  50   28   54 1
  51   28   55 1
  52   29   33 1
  53   29   34 1
  54   29   30 1
  55   30   56 1
  56   30   57 1
  57   31   58 1
  58   31   59 1
  59   31   60 1
  60   33   61 1
  61   34   35 1
  62   34   36 2
  63   35   37 1
  64   37   38 1
  65   37   62 1
  66   37   63 1
  67   38   39 1
  68   38   64 1
  69   38   65 1
  70   39   40 1
  71   39   66 1
  72   39   67 1
  73   40   41 1
  74   40   68 1
  75   40   69 1
  76   41   42 1
  77   41   70 1
  78   41   71 1
  79   42   72 1
  80   42   73 1
  81   42   74 1

#	End of record

