#	Name: ASD01000082
#	Creating user name:	WinNT
#	Creation time:	15. 06. 2019 18:54

#	Modifying user name:	WinNT
#	Modification time:	15. 06. 2019 18:54

#	Program:	/corina/corina34_cracker 3.40 0067  02.08.2006

@<TRIPOS>MOLECULE
ASD01000082
  50   53    0    0    0
SMALL
NO_CHARGES


@<TRIPOS>ATOM
   1 C1            -1.4273    -0.5488     2.6129 C.3     
   2 C2            -0.6044    -0.7373     1.3646 C.ar    
   3 C3             0.7266    -1.0968     1.4619 C.ar    
   4 C4             1.4815    -1.2696     0.3166 C.ar    
   5 C5            -2.6352    -0.1700     0.0154 C.3     
   6 C6            -1.1824    -0.5560     0.1217 C.ar    
   7 C7            -0.4276    -0.7284    -1.0232 C.ar    
   8 C8             0.9051    -1.0833    -0.9257 C.ar    
   9 C9            -4.3693    -2.8963    -3.2074 C.ar    
  10 C10           -3.8601    -2.2182    -2.1376 C.ar    
  11 C11           -3.5062    -0.8803    -2.2627 C.ar    
  12 C12           -1.3836     4.5373    -2.1428 C.ar    
  13 C13           -1.4030     5.6928    -2.8993 C.ar    
  14 C14           -2.4008     5.8886    -3.8418 C.ar    
  15 C15           -1.3795     7.9773    -4.3441 C.3     
  16 C16           -5.0914    -2.9959    -5.5887 C.2     
  17 C17           -4.5401    -2.2523    -4.4400 C.ar    
  18 C18           -4.1906    -0.9116    -4.5832 C.ar    
  19 C19           -3.6707    -0.2175    -3.4926 C.ar    
  20 N20           -2.9796     0.0532    -1.3909 N.pl3   
  21 N21           -3.2458     1.0621    -3.3172 N.2     
  22 O22           -5.2401    -2.4388    -6.6582 O.2     
  23 O23           -2.4190     7.0271    -4.5863 O.3     
  24 C24           -2.8394     1.2230    -2.0829 C.2     
  25 C25           -2.3635     3.5705    -2.3256 C.ar    
  26 C26           -3.3632     3.7657    -3.2693 C.ar    
  27 C27           -3.3819     4.9228    -4.0262 C.ar    
  28 N28           -2.3433     2.3990    -1.5590 N.pl3   
  29 O29           -5.4301    -4.2928    -5.4518 O.3     
  30 F30           -0.6361    -0.8098     3.7368 F       
  31 F31           -1.8960     0.7682     2.6682 F       
  32 F32           -2.5138    -1.4299     2.5927 F       
  33 F33           -4.3543     5.1140    -4.9443 F       
  34 H34            1.1770    -1.2424     2.4327 H       
  35 H35            2.5217    -1.5499     0.3927 H       
  36 H36           -3.2545    -0.9714     0.4184 H       
  37 H37           -2.8106     0.7446     0.5820 H       
  38 H38           -0.8790    -0.5864    -1.9940 H       
  39 H39            1.4949    -1.2180    -1.8203 H       
  40 H40           -4.6381    -3.9372    -3.1042 H       
  41 H41           -3.7323    -2.7228    -1.1913 H       
  42 H42           -0.6036     4.3837    -1.4117 H       
  43 H43           -0.6406     6.4442    -2.7565 H       
  44 H44           -1.4222     8.3057    -3.3057 H       
  45 H45           -0.4119     7.5150    -4.5395 H       
  46 H46           -1.5115     8.8359    -5.0025 H       
  47 H47           -4.3216    -0.4137    -5.5327 H       
  48 H48           -4.1257     3.0143    -3.4121 H       
  49 H49           -1.9805     2.4142    -0.6595 H       
  50 H50           -5.7872    -4.7381    -6.2324 H       
@<TRIPOS>BOND
   1    1    2 1
   2    1   30 1
   3    1   31 1
   4    1   32 1
   5    2    3 ar
   6    2    6 ar
   7    3    4 ar
   8    3   34 1
   9    4    8 ar
  10    4   35 1
  11    5    6 1
  12    5   20 1
  13    5   36 1
  14    5   37 1
  15    6    7 ar
  16    7    8 ar
  17    7   38 1
  18    8   39 1
  19    9   10 ar
  20    9   17 ar
  21    9   40 1
  22   10   11 ar
  23   10   41 1
  24   11   19 ar
  25   11   20 1
  26   12   13 ar
  27   12   25 ar
  28   12   42 1
  29   13   14 ar
  30   13   43 1
  31   14   23 1
  32   14   27 ar
  33   15   23 1
  34   15   44 1
  35   15   45 1
  36   15   46 1
  37   16   17 1
  38   16   22 2
  39   16   29 1
  40   17   18 ar
  41   18   19 ar
  42   18   47 1
  43   19   21 1
  44   20   24 1
  45   21   24 2
  46   24   28 1
  47   25   26 ar
  48   25   28 1
  49   26   27 ar
  50   26   48 1
  51   27   33 1
  52   28   49 1
  53   29   50 1

#	End of record

