#	Name: ASD00310055
#	Creating user name:	WinNT
#	Creation time:	15. 06. 2019 18:33

#	Modifying user name:	WinNT
#	Modification time:	15. 06. 2019 18:33

#	Program:	/corina/corina34_cracker 3.40 0067  02.08.2006

@<TRIPOS>MOLECULE
ASD00310055
  22   23    0    0    0
SMALL
NO_CHARGES


@<TRIPOS>ATOM
   1 N1            -1.4310     0.7277     1.8097 N.3     
   2 C2            -0.4832     1.8473     1.9628 C.3     
   3 C3             0.3761     0.9267     2.8406 C.3     
   4 C4            -0.9617     0.2253     3.1144 C.3     
   5 O5             1.3148     0.1327     2.1123 O.3     
   6 C6             2.4010    -0.3186     2.7933 C.ar    
   7 C7             2.5010    -0.1062     4.1606 C.ar    
   8 C8             3.6059    -0.5656     4.8510 C.ar    
   9 C9             4.6123    -1.2367     4.1797 C.ar    
  10 C10            4.5145    -1.4495     2.8162 C.ar    
  11 C11            3.4084    -0.9971     2.1232 C.ar    
  12 Br12           6.1242    -1.8634     5.1271 Br      
  13 H13           -2.3850     1.0509     1.8686 H       
  14 H14            0.0023     2.1357     1.0306 H       
  15 H15           -0.8994     2.6977     2.5028 H       
  16 H16            0.8092     1.4177     3.7121 H       
  17 H17           -1.5055     0.6429     3.9617 H       
  18 H18           -0.8815    -0.8609     3.1581 H       
  19 H19            1.7159     0.4183     4.6849 H       
  20 H20            3.6841    -0.4005     5.9154 H       
  21 H21            5.3013    -1.9736     2.2941 H       
  22 H22            3.3303    -1.1674     1.0596 H       
@<TRIPOS>BOND
   1    1    2 1
   2    1    4 1
   3    1   13 1
   4    2    3 1
   5    2   14 1
   6    2   15 1
   7    3    4 1
   8    3    5 1
   9    3   16 1
  10    4   17 1
  11    4   18 1
  12    5    6 1
  13    6    7 ar
  14    6   11 ar
  15    7    8 ar
  16    7   19 1
  17    8    9 ar
  18    8   20 1
  19    9   10 ar
  20    9   12 1
  21   10   11 ar
  22   10   21 1
  23   11   22 1

#	End of record

