#	Name: ASD08150521
#	Creating user name:	WinNT
#	Creation time:	15. 06. 2019 21:16

#	Modifying user name:	WinNT
#	Modification time:	15. 06. 2019 21:16

#	Program:	/corina/corina34_cracker 3.40 0067  02.08.2006

@<TRIPOS>MOLECULE
ASD08150521
  28   29    0    0    0
SMALL
NO_CHARGES


@<TRIPOS>ATOM
   1 C1            -0.2087     1.2229     0.0823 C.2     
   2 C2             0.2328    -0.1809    -0.0030 C.ar    
   3 C3             1.5935    -0.4846    -0.1640 C.ar    
   4 C4             1.9970    -1.8126    -0.2426 C.ar    
   5 C5             1.0616    -2.8252    -0.1629 C.ar    
   6 C6            -0.2825    -2.5277    -0.0043 C.ar    
   7 C7            -0.7003    -1.2176     0.0818 C.ar    
   8 O8             0.6139     2.1180     0.1174 O.2     
   9 N9            -1.5240     1.5149     0.1157 N.am    
  10 C10           -1.9426     2.8393     0.2833 C.ar    
  11 C11           -3.0946     3.1193     1.0093 C.ar    
  12 C12           -3.5045     4.4287     1.1730 C.ar    
  13 C13           -2.7701     5.4594     0.6153 C.ar    
  14 C14           -1.6243     5.1837    -0.1076 C.ar    
  15 C15           -1.2053     3.8773    -0.2700 C.ar    
  16 Cl16          -4.0172     1.8257     1.7086 Cl      
  17 Cl17           3.6778    -2.1982    -0.4418 Cl      
  18 N18            2.5323     0.5366    -0.2449 N.pl3   
  19 H19            1.3794    -3.8555    -0.2247 H       
  20 H20           -1.0061    -3.3272     0.0562 H       
  21 H21           -1.7487    -0.9920     0.2097 H       
  22 H22           -2.1805     0.8067     0.0236 H       
  23 H23           -4.3993     4.6474     1.7368 H       
  24 H24           -3.0927     6.4820     0.7443 H       
  25 H25           -1.0535     5.9911    -0.5420 H       
  26 H26           -0.3076     3.6634    -0.8311 H       
  27 H27            2.2415     1.4615    -0.2739 H       
  28 H28            3.4784     0.3245    -0.2724 H       
@<TRIPOS>BOND
   1    1    2 1
   2    1    8 2
   3    1    9 am
   4    2    3 ar
   5    2    7 ar
   6    3    4 ar
   7    3   18 1
   8    4    5 ar
   9    4   17 1
  10    5    6 ar
  11    5   19 1
  12    6    7 ar
  13    6   20 1
  14    7   21 1
  15    9   10 1
  16    9   22 1
  17   10   11 ar
  18   10   15 ar
  19   11   12 ar
  20   11   16 1
  21   12   13 ar
  22   12   23 1
  23   13   14 ar
  24   13   24 1
  25   14   15 ar
  26   14   25 1
  27   15   26 1
  28   18   27 1
  29   18   28 1

#	End of record

