#	Name: ASD01028673
#	Creating user name:	WinNT
#	Creation time:	15. 06. 2019 18:57

#	Modifying user name:	WinNT
#	Modification time:	15. 06. 2019 18:57

#	Program:	/corina/corina34_cracker 3.40 0067  02.08.2006

@<TRIPOS>MOLECULE
ASD01028673
  32   35    0    0    0
SMALL
NO_CHARGES


@<TRIPOS>ATOM
   1 N1            -0.0157     1.3066     0.0092 N.ar    
   2 C2             0.0021    -0.0041     0.0020 C.ar    
   3 C3             1.1967    -0.7211    -0.0128 C.ar    
   4 C4             2.3902    -0.0572    -0.0206 C.ar    
   5 C5             2.3672     1.3504    -0.0132 C.ar    
   6 C6             3.5535     2.1011    -0.0200 C.ar    
   7 C7             3.4892     3.4613    -0.0122 C.ar    
   8 C8             2.2611     4.1187     0.0030 C.ar    
   9 C9             1.0917     3.4224     0.0100 C.ar    
  10 C10            1.1167     2.0170     0.0022 C.ar    
  11 C11            4.7634     4.2659    -0.0195 C.3     
  12 C12            5.4157     5.4485    -3.4118 C.2     
  13 C13            5.2272     6.4117    -4.4243 C.2     
  14 C14            4.4431     7.4964    -4.1721 C.2     
  15 C15            3.8356     7.6397    -2.9120 C.2     
  16 C16            4.0257     6.7086    -1.9527 C.2     
  17 N17            4.8092     5.6165    -2.1918 N.pl3   
  18 N18            5.9481     3.7900    -2.1839 N.2     
  19 N19            6.0949     4.3146    -3.3497 N.2     
  20 C20            5.1751     4.5418    -1.4427 C.2     
  21 F21            5.8178     6.2607    -5.6299 F       
  22 Cl22           2.8361     9.0216    -2.5878 Cl      
  23 H23           -0.9341    -0.5425     0.0081 H       
  24 H24            1.1789    -1.8009    -0.0177 H       
  25 H25            3.3255    -0.5970    -0.0317 H       
  26 H26            4.5116     1.6027    -0.0311 H       
  27 H27            2.2365     5.1984     0.0097 H       
  28 H28            0.1481     3.9476     0.0221 H       
  29 H29            4.6001     5.2097     0.5009 H       
  30 H30            5.5504     3.7047     0.4842 H       
  31 H31            4.2889     8.2435    -4.9366 H       
  32 H32            3.5545     6.8291    -0.9885 H       
@<TRIPOS>BOND
   1    1    2 ar
   2    1   10 ar
   3    2    3 ar
   4    2   23 1
   5    3    4 ar
   6    3   24 1
   7    4    5 ar
   8    4   25 1
   9    5    6 ar
  10    5   10 ar
  11    6    7 ar
  12    6   26 1
  13    7    8 ar
  14    7   11 1
  15    8    9 ar
  16    8   27 1
  17    9   10 ar
  18    9   28 1
  19   11   20 1
  20   11   29 1
  21   11   30 1
  22   12   13 1
  23   12   17 1
  24   12   19 2
  25   13   14 2
  26   13   21 1
  27   14   15 1
  28   14   31 1
  29   15   16 2
  30   15   22 1
  31   16   17 1
  32   16   32 1
  33   17   20 1
  34   18   19 1
  35   18   20 2

#	End of record

