#	Name: ASD01410727
#	Creating user name:	WinNT
#	Creation time:	15. 06. 2019 19:18

#	Modifying user name:	WinNT
#	Modification time:	15. 06. 2019 19:18

#	Program:	/corina/corina34_cracker 3.40 0067  02.08.2006

@<TRIPOS>MOLECULE
ASD01410727
 137  143    0    0    0
SMALL
NO_CHARGES


@<TRIPOS>ATOM
   1 C1             0.9534     0.5206     1.5817 C.3     
   2 C2             0.2526    -0.6242     2.3496 C.3     
   3 N3             0.2767    -0.1901     3.7617 N.am    
   4 C4             0.3174     1.2770     3.7959 C.3     
   5 C5             0.4136     1.7671     2.3347 C.3     
   6 O6             2.3742     0.4242     1.7007 O.3     
   7 C7            -0.9399     1.8099     4.4335 C.2     
   8 O8            -1.7936     1.0425     4.8247 O.2     
   9 N9            -1.1155     3.1393     4.5689 N.am    
  10 C10            1.0879    -1.9049     2.2441 C.3     
  11 C11            0.4711    -2.5040     4.6404 C.3     
  12 C12            0.2983    -1.0216     4.8170 C.2     
  13 O13            0.1766    -0.5666     5.9346 O.2     
  14 C14           -0.7278    -3.2252     5.2596 C.3     
  15 C15           -0.9440    -2.7214     6.6880 C.3     
  16 C16           -2.3901     3.6629     5.0664 C.3     
  17 C17           -3.6001     3.3278     4.2328 C.2     
  18 N18           -3.4784     3.1750     2.8993 N.am    
  19 O19           -4.6833     3.1957     4.7620 O.2     
  20 S20           -4.8246     2.9218     1.9687 S.o2    
  21 C21           -5.7793     4.4561     2.1268 C.3     
  22 C22           -2.5772     3.7434     6.5827 C.3     
  23 C23           -2.3699     5.0225     5.7677 C.3     
  24 C24           -7.1063     4.5436     1.3703 C.3     
  25 C25           -7.1022     4.3892     2.8925 C.3     
  26 O26           -4.3172     2.7841     0.6485 O.2     
  27 O27           -5.4974     1.8474     2.6107 O.2     
  28 C28           -3.9574     3.4822     7.1284 C.2     
  29 C29           -4.1536     2.4972     7.9694 C.2     
  30 C30            3.1145     0.9984     0.7203 C.ar    
  31 C31            4.5279     0.9585     0.7599 C.ar    
  32 C32            2.5132     1.6276    -0.3381 C.ar    
  33 C33            3.3008     2.2133    -1.3385 C.ar    
  34 N34            4.6217     2.1750    -1.2895 N.ar    
  35 C35            5.2637     1.5709    -0.2846 C.ar    
  36 C36            2.6398     2.8888    -2.4748 C.2     
  37 C37            6.6685     1.5374    -0.2434 C.ar    
  38 C38            7.3034     0.9083     0.8043 C.ar    
  39 C39            6.5666     0.3028     1.8262 C.ar    
  40 C40            5.2056     0.3259     1.8121 C.ar    
  41 Cl41           7.5973     2.2839    -1.5059 Cl      
  42 O42            8.6611     0.8753     0.8448 O.3     
  43 C43            9.2609     0.2080     1.9569 C.3     
  44 C44           -1.9788    -2.9442     4.4249 C.3     
  45 N45            3.2506     3.4709    -3.4671 N.2     
  46 C46           10.7842     0.2738     1.8301 C.3     
  47 N47           11.2241     1.6717     1.9323 N.3     
  48 C48           12.6868     1.7562     2.0531 C.3     
  49 C49           13.1057     3.2281     2.0966 C.3     
  50 O50           12.4346     3.8778     3.1796 O.3     
  51 C51           11.0084     3.8153     3.0935 C.3     
  52 C52           10.5682     2.3493     3.0601 C.3     
  53 C53            2.4997     4.0212    -4.3902 C.2     
  54 C54            1.1774     3.9200    -4.2038 C.2     
  55 S55            0.8993     3.0295    -2.7083 S.3     
  56 C56            3.0879     4.7244    -5.5863 C.3     
  57 C57            3.1629     3.7509    -6.7643 C.3     
  58 C58            2.2040     5.9148    -5.9638 C.3     
  59 C59           -4.9529     5.7374     2.2541 C.3     
  60 N60            0.5675    -2.8635     3.2274 N.am    
  61 O61            0.2433    -4.4194     1.5192 O.3     
  62 C62           -0.1965    -5.7544     1.1550 C.3     
  63 C63           -1.6644    -5.9327     1.5479 C.3     
  64 C64           -0.0458    -5.9467    -0.3553 C.3     
  65 C65            0.6573    -6.7905     1.8888 C.3     
  66 C66            0.1747    -4.0874     2.8222 C.2     
  67 O67           -0.2413    -4.8913     3.6329 O.2     
  68 H68            0.6503     0.5329     0.5348 H       
  69 H69           -0.7679    -0.7726     1.9964 H       
  70 H70            1.1902     1.6107     4.3571 H       
  71 H71            1.1127     2.5994     2.2527 H       
  72 H72           -0.5692     2.0495     1.9574 H       
  73 H73           -0.3979     3.7494     4.3370 H       
  74 H74            0.9999    -2.3213     1.2406 H       
  75 H75            2.1326    -1.6832     2.4621 H       
  76 H76            1.3805    -2.8206     5.1513 H       
  77 H77           -0.5366    -4.2982     5.2779 H       
  78 H78           -1.7981    -3.2352     7.1291 H       
  79 H79           -0.0527    -2.9216     7.2827 H       
  80 H80           -1.1352    -1.6485     6.6698 H       
  81 H81           -2.6024     3.2133     2.4846 H       
  82 H82           -1.7519     3.4069     7.2102 H       
  83 H83           -1.4082     5.5273     5.8593 H       
  84 H84           -3.2318     5.6746     5.6266 H       
  85 H85           -7.3908     5.5140     0.9637 H       
  86 H86           -7.4057     3.6792     0.7776 H       
  87 H87           -7.3989     3.4233     3.3013 H       
  88 H88           -7.3840     5.2581     3.4873 H       
  89 H89           -4.7847     4.1072     6.8262 H       
  90 H90           -3.3263     1.8723     8.2717 H       
  91 H91           -5.1428     2.3100     8.3605 H       
  92 H92            1.4359     1.6717    -0.4012 H       
  93 H93            7.0834    -0.1858     2.6389 H       
  94 H94            4.6485    -0.1456     2.6082 H       
  95 H95            8.9520     0.6943     2.8822 H       
  96 H96            8.9421    -0.8343     1.9703 H       
  97 H97           -1.8248    -3.3032     3.4072 H       
  98 H98           -2.8329    -3.4581     4.8660 H       
  99 H99           -2.1700    -1.8713     4.4066 H       
 100 H100          11.2409    -0.3101     2.6292 H       
 101 H101          11.0864    -0.1325     0.8649 H       
 102 H102          13.0056     1.2598     2.9697 H       
 103 H103          13.1516     1.2707     1.1950 H       
 104 H104          14.1837     3.2956     2.2435 H       
 105 H105          12.8347     3.7115     1.1580 H       
 106 H106          10.5694     4.3074     3.9614 H       
 107 H107          10.6764     4.3158     2.1839 H       
 108 H108           9.4865     2.2968     2.9370 H       
 109 H109          10.8532     1.8624     3.9928 H       
 110 H110           0.4135     4.3121    -4.8589 H       
 111 H111           4.0898     5.0784    -5.3432 H       
 112 H112           2.1610     3.3969    -7.0073 H       
 113 H113           3.5883     4.2595    -7.6294 H       
 114 H114           3.7926     2.9029    -6.4953 H       
 115 H115           2.1506     6.6083    -5.1246 H       
 116 H116           2.6294     6.4234    -6.8289 H       
 117 H117           1.2021     5.5607    -6.2068 H       
 118 H118          -4.6931     6.1024     1.2604 H       
 119 H119          -5.5354     6.4949     2.7785 H       
 120 H120          -4.0415     5.5278     2.8140 H       
 121 H121          -2.2726    -5.1945     1.0252 H       
 122 H122          -1.9945    -6.9349     1.2746 H       
 123 H123          -1.7717    -5.7957     2.6240 H       
 124 H124           0.9999    -5.8197    -0.6353 H       
 125 H125          -0.3760    -6.9489    -0.6287 H       
 126 H126          -0.6541    -5.2086    -0.8780 H       
 127 H127           0.5500    -6.6535     2.9648 H       
 128 H128           0.3272    -7.7927     1.6154 H       
 129 H129           1.7031    -6.6635     1.6088 H       
 130 C130          20.1855    13.5154    14.2657 C.3     
 131 C131          20.2063    11.9856    14.2573 C.3     
 132 H132          21.2081    13.8927    14.2580 H       
 133 H133          19.6583    13.8765    13.3826 H       
 134 H134          19.6753    13.8669    15.1625 H       
 135 H135          20.7334    11.6245    15.1404 H       
 136 H136          19.1837    11.6083    14.2650 H       
 137 H137          20.7164    11.6340    13.3605 H       
@<TRIPOS>BOND
   1    1    2 1
   2    1    6 1
   3    1    5 1
   4    1   68 1
   5    2    3 1
   6    2   10 1
   7    2   69 1
   8    3    4 1
   9    3   12 am
  10    4    5 1
  11    4    7 1
  12    4   70 1
  13    5   71 1
  14    5   72 1
  15    6   30 1
  16    7    8 2
  17    7    9 am
  18    9   16 1
  19    9   73 1
  20   10   60 1
  21   10   74 1
  22   10   75 1
  23   11   12 1
  24   11   14 1
  25   11   60 1
  26   11   76 1
  27   12   13 2
  28   14   15 1
  29   14   44 1
  30   14   77 1
  31   15   78 1
  32   15   79 1
  33   15   80 1
  34   16   17 1
  35   16   22 1
  36   16   23 1
  37   17   18 am
  38   17   19 2
  39   18   20 am
  40   18   81 1
  41   20   21 1
  42   20   26 2
  43   20   27 2
  44   21   24 1
  45   21   59 1
  46   21   25 1
  47   22   23 1
  48   22   28 1
  49   22   82 1
  50   23   83 1
  51   23   84 1
  52   24   25 1
  53   24   85 1
  54   24   86 1
  55   25   87 1
  56   25   88 1
  57   28   29 2
  58   28   89 1
  59   29   90 1
  60   29   91 1
  61   30   31 ar
  62   30   32 ar
  63   31   35 ar
  64   31   40 ar
  65   32   33 ar
  66   32   92 1
  67   33   34 ar
  68   33   36 1
  69   34   35 ar
  70   35   37 ar
  71   36   45 2
  72   36   55 1
  73   37   38 ar
  74   37   41 1
  75   38   39 ar
  76   38   42 1
  77   39   40 ar
  78   39   93 1
  79   40   94 1
  80   42   43 1
  81   43   46 1
  82   43   95 1
  83   43   96 1
  84   44   97 1
  85   44   98 1
  86   44   99 1
  87   45   53 1
  88   46   47 1
  89   46  100 1
  90   46  101 1
  91   47   48 1
  92   47   52 1
  93   48   49 1
  94   48  102 1
  95   48  103 1
  96   49   50 1
  97   49  104 1
  98   49  105 1
  99   50   51 1
 100   51   52 1
 101   51  106 1
 102   51  107 1
 103   52  108 1
 104   52  109 1
 105   53   54 2
 106   53   56 1
 107   54   55 1
 108   54  110 1
 109   56   57 1
 110   56   58 1
 111   56  111 1
 112   57  112 1
 113   57  113 1
 114   57  114 1
 115   58  115 1
 116   58  116 1
 117   58  117 1
 118   59  118 1
 119   59  119 1
 120   59  120 1
 121   60   66 am
 122   61   62 1
 123   61   66 1
 124   62   63 1
 125   62   64 1
 126   62   65 1
 127   63  121 1
 128   63  122 1
 129   63  123 1
 130   64  124 1
 131   64  125 1
 132   64  126 1
 133   65  127 1
 134   65  128 1
 135   65  129 1
 136   66   67 2
 137  130  131 1
 138  130  132 1
 139  130  133 1
 140  130  134 1
 141  131  135 1
 142  131  136 1
 143  131  137 1

#	End of record

