#	Name: ASD01882415
#	Creating user name:	WinNT
#	Creation time:	15. 06. 2019 19:44

#	Modifying user name:	WinNT
#	Modification time:	15. 06. 2019 19:44

#	Program:	/corina/corina34_cracker 3.40 0067  02.08.2006

@<TRIPOS>MOLECULE
ASD01882415
  58   61    0    0    0
SMALL
NO_CHARGES


@<TRIPOS>ATOM
   1 C1            -0.0184     1.5089     0.0103 C.2     
   2 C2             0.0021    -0.0041     0.0020 C.3     
   3 C3            -1.4921    -0.3859     0.0148 C.3     
   4 C4            -2.1999     0.9514     0.0290 C.2     
   5 N5            -1.2884     1.9320     0.0306 N.am    
   6 O6             0.9601     2.2245     0.0048 O.2     
   7 O7            -3.4017     1.1098     0.0414 O.2     
   8 C8            -1.6510     3.3514     0.0432 C.3     
   9 C9            -1.7666     3.8277     1.4683 C.ar    
  10 C10           -0.6441     4.3445     2.1115 C.ar    
  11 C11           -0.7169     4.7836     3.3997 C.ar    
  12 C12           -1.9349     4.7153     4.0877 C.ar    
  13 C13           -3.0802     4.1901     3.4375 C.ar    
  14 C14           -2.9670     3.7512     2.1046 C.ar    
  15 C15           -2.0486     5.1621     5.4290 C.ar    
  16 C16           -3.2897     5.0617     6.0444 C.ar    
  17 C17           -4.3708     4.5312     5.3325 C.ar    
  18 N18           -4.2440     4.1203     4.0847 N.ar    
  19 C19           -5.6924     4.4274     5.9969 C.2     
  20 N20           -6.7454     3.9189     5.3267 N.am    
  21 O21           -5.8261     4.8007     7.1453 O.2     
  22 C22           -0.8819     5.7173     6.1500 C.ar    
  23 C23           -0.3630     5.0499     7.2602 C.ar    
  24 C24            0.7241     5.5696     7.9292 C.ar    
  25 C25            1.3047     6.7567     7.5005 C.ar    
  26 C26            0.7930     7.4255     6.3966 C.ar    
  27 C27           -0.2925     6.9092     5.7173 C.ar    
  28 F28           -0.7907     7.5596     4.6431 F       
  29 O29            2.3756     7.2649     8.1636 O.3     
  30 O30            3.6712     6.7960     7.6542 O.3     
  31 O31            4.8295     7.3455     8.3714 O.3     
  32 O32            6.1251     6.8766     7.8620 O.3     
  33 O33            7.2834     7.4262     8.5791 O.3     
  34 O34            8.5790     6.9573     8.0698 O.3     
  35 O35            9.7373     7.5069     8.7869 O.3     
  36 O36           11.0329     7.0380     8.2775 O.3     
  37 O37           12.1912     7.5876     8.9947 O.3     
  38 O38           13.4869     7.1187     8.4853 O.3     
  39 O39           14.6451     7.6683     9.2025 O.3     
  40 C40           15.9055     7.2121     8.7070 C.3     
  41 H41            0.4854    -0.3762    -0.9013 H       
  42 H42            0.5032    -0.3858     0.8915 H       
  43 H43           -1.7521    -0.9480    -0.8822 H       
  44 H44           -1.7343    -0.9576     0.9107 H       
  45 H45           -0.8819     3.9275    -0.4711 H       
  46 H46           -2.6064     3.4869    -0.4637 H       
  47 H47            0.2960     4.3977     1.5826 H       
  48 H48            0.1603     5.1820     3.8877 H       
  49 H49           -3.8278     3.3483     1.5916 H       
  50 H50           -3.4190     5.3903     7.0651 H       
  51 H51           -6.6387     3.6209     4.4098 H       
  52 H52           -7.6100     3.8510     5.7613 H       
  53 H53           -0.8132     4.1271     7.5952 H       
  54 H54            1.1253     5.0531     8.7886 H       
  55 H55            1.2468     8.3482     6.0666 H       
  56 H56           15.9588     6.1269     8.7937 H       
  57 H57           16.0096     7.4985     7.6604 H       
  58 H58           16.7094     7.6630     9.2888 H       
@<TRIPOS>BOND
   1    1    2 1
   2    1    6 2
   3    1    5 am
   4    2    3 1
   5    2   41 1
   6    2   42 1
   7    3    4 1
   8    3   43 1
   9    3   44 1
  10    4    5 am
  11    4    7 2
  12    5    8 1
  13    8    9 1
  14    8   45 1
  15    8   46 1
  16    9   10 ar
  17    9   14 ar
  18   10   11 ar
  19   10   47 1
  20   11   12 ar
  21   11   48 1
  22   12   13 ar
  23   12   15 ar
  24   13   14 ar
  25   13   18 ar
  26   14   49 1
  27   15   16 ar
  28   15   22 1
  29   16   17 ar
  30   16   50 1
  31   17   18 ar
  32   17   19 1
  33   19   20 am
  34   19   21 2
  35   20   51 1
  36   20   52 1
  37   22   23 ar
  38   22   27 ar
  39   23   24 ar
  40   23   53 1
  41   24   25 ar
  42   24   54 1
  43   25   29 1
  44   25   26 ar
  45   26   27 ar
  46   26   55 1
  47   27   28 1
  48   29   30 1
  49   30   31 1
  50   31   32 1
  51   32   33 1
  52   33   34 1
  53   34   35 1
  54   35   36 1
  55   36   37 1
  56   37   38 1
  57   38   39 1
  58   39   40 1
  59   40   56 1
  60   40   57 1
  61   40   58 1

#	End of record

