#	Name: ASD00840749
#	Creating user name:	WinNT
#	Creation time:	15. 06. 2019 18:39

#	Modifying user name:	WinNT
#	Modification time:	15. 06. 2019 18:39

#	Program:	/corina/corina34_cracker 3.40 0067  02.08.2006

@<TRIPOS>MOLECULE
ASD00840749
  97  102    0    0    0
SMALL
NO_CHARGES


@<TRIPOS>ATOM
   1 F1             6.0660    -1.9523    -2.0296 F       
   2 N2             1.0627     1.4585    -0.7563 N.ar    
   3 C3             1.3243     0.1664    -0.8621 C.ar    
   4 C4             1.2443    -0.6652     0.2478 C.ar    
   5 C5             0.8864    -0.1241     1.4701 C.ar    
   6 C6             0.6199     1.2367     1.5392 C.ar    
   7 C7             0.7190     2.0033     0.3955 C.ar    
   8 C8             1.5427    -2.1370     0.1223 C.3     
   9 C9             1.2605    -2.8486     1.4283 C.2     
  10 C10            0.7225    -2.7540    -1.0124 C.3     
  11 C11           -0.7395    -2.4632    -0.7910 C.2     
  12 N12           -1.6637    -2.9847    -1.6219 N.am    
  13 O13           -1.0845    -1.7598     0.1349 O.2     
  14 C14           -3.0810    -2.6217    -1.4875 C.3     
  15 C15           -3.9096    -3.9048    -1.3697 C.3     
  16 C16           -3.6043    -4.8156    -2.5611 C.3     
  17 C17           -2.1217    -5.1952    -2.5484 C.3     
  18 C18           -1.2721    -3.9224    -2.6831 C.3     
  19 N19           -4.4218    -6.0326    -2.4688 N.3     
  20 C20           -4.2435    -6.8782    -3.6575 C.3     
  21 C21           -5.0477    -8.1692    -3.4872 C.3     
  22 N22           -6.4655    -7.8374    -3.2883 N.3     
  23 C23           -6.6438    -6.9918    -2.0997 C.3     
  24 C24           -5.8396    -5.7008    -2.2700 C.3     
  25 C25           -7.2830    -9.0544    -3.1961 C.3     
  26 O26            0.1885    -2.9241     1.9905 O.2     
  27 N27            2.4206    -3.3815     1.8474 N.am    
  28 C28            3.0200    -2.3600    -0.1065 C.ar    
  29 C29            3.4729    -3.1132     0.9694 C.ar    
  30 C30            3.8807    -1.9712    -1.1081 C.ar    
  31 C31            5.2176    -2.3320    -1.0492 C.ar    
  32 C32            5.6809    -3.0831     0.0191 C.ar    
  33 C33            4.8176    -3.4730     1.0236 C.ar    
  34 Cl34           7.3551    -3.5360     0.0948 Cl      
  35 C35            2.2912    -5.9449     2.8405 C.ar    
  36 C36            1.0365    -6.3461     2.4045 C.ar    
  37 C37            3.3130    -6.8687     2.9526 C.ar    
  38 C38            3.0883    -8.1932     2.6306 C.ar    
  39 C39            1.8350    -8.5994     2.1940 C.ar    
  40 C40            0.8084    -7.6750     2.0812 C.ar    
  41 O41            1.6144    -9.9026     1.8778 O.3     
  42 O42            0.0320    -5.4374     2.2949 O.3     
  43 C43           -1.2333    -5.9208     1.8398 C.3     
  44 C44            2.7176   -10.7999     2.0183 C.3     
  45 C45           -8.7278    -8.6744    -2.8659 C.3     
  46 C46           -7.2439    -9.7976    -4.5329 C.3     
  47 S47            2.5839    -4.2551     3.2447 S.o2    
  48 O48            3.9519    -4.1630     3.6179 O.2     
  49 O49            1.5178    -3.8553     4.0948 O.2     
  50 O50            1.6736    -0.3519    -2.0663 O.3     
  51 C51            2.1650    -0.1930    -4.4272 C.3     
  52 C52            1.6302     0.5303    -3.1896 C.3     
  53 H53            0.8157    -0.7462     2.3501 H       
  54 H54            0.3376     1.6905     2.4777 H       
  55 H55            0.5131     3.0623     0.4440 H       
  56 H56            1.0382    -2.3254    -1.9636 H       
  57 H57            0.8799    -3.8324    -1.0297 H       
  58 H58           -3.2194    -2.0140    -0.5933 H       
  59 H59           -3.3994    -2.0605    -2.3661 H       
  60 H60           -3.6539    -4.4193    -0.4435 H       
  61 H61           -4.9703    -3.6538    -1.3661 H       
  62 H62           -3.8370    -4.2914    -3.4880 H       
  63 H63           -1.8828    -5.6975    -1.6110 H       
  64 H64           -1.9099    -5.8626    -3.3837 H       
  65 H65           -1.4442    -3.4698    -3.6597 H       
  66 H66           -0.2171    -4.1742    -2.5756 H       
  67 H67           -4.5957    -6.3441    -4.5399 H       
  68 H68           -3.1874    -7.1206    -3.7761 H       
  69 H69           -4.9401    -8.7851    -4.3800 H       
  70 H70           -4.6774    -8.7167    -2.6205 H       
  71 H71           -7.6999    -6.7494    -1.9810 H       
  72 H72           -6.2916    -7.5260    -1.2173 H       
  73 H73           -5.9472    -5.0849    -1.3772 H       
  74 H74           -6.2099    -5.1533    -3.1367 H       
  75 H75           -6.8882    -9.6987    -2.4105 H       
  76 H76            3.5147    -1.3862    -1.9388 H       
  77 H77            5.1856    -4.0584     1.8532 H       
  78 H78            4.2889    -6.5545     3.2922 H       
  79 H79            3.8886    -8.9131     2.7183 H       
  80 H80           -0.1676    -7.9892     1.7419 H       
  81 H81           -1.1207    -6.3541     0.8460 H       
  82 H82           -1.6006    -6.6817     2.5284 H       
  83 H83           -1.9439    -5.0953     1.7978 H       
  84 H84            3.5339   -10.4760     1.3726 H       
  85 H85            3.0538   -10.8030     3.0551 H       
  86 H86            2.4067   -11.8053     1.7342 H       
  87 H87           -9.3345    -9.5774    -2.7975 H       
  88 H88           -8.7557    -8.1449    -1.9135 H       
  89 H89           -9.1227    -8.0301    -3.6515 H       
  90 H90           -6.2146   -10.0683    -4.7681 H       
  91 H91           -7.8506   -10.7006    -4.4645 H       
  92 H92           -7.6388    -9.1533    -5.3185 H       
  93 H93            1.5000    -1.0185    -4.6813 H       
  94 H94            2.2138     0.5047    -5.2632 H       
  95 H95            3.1622    -0.5807    -4.2188 H       
  96 H96            0.6009     0.8419    -3.3673 H       
  97 H97            2.2453     1.4071    -2.9871 H       
@<TRIPOS>BOND
   1    1   31 1
   2    2    3 ar
   3    2    7 ar
   4    3    4 ar
   5    3   50 1
   6    4    5 ar
   7    4    8 1
   8    5    6 ar
   9    5   53 1
  10    6    7 ar
  11    6   54 1
  12    7   55 1
  13    8    9 1
  14    8   10 1
  15    8   28 1
  16    9   26 2
  17    9   27 am
  18   10   11 1
  19   10   56 1
  20   10   57 1
  21   11   12 am
  22   11   13 2
  23   12   14 1
  24   12   18 1
  25   14   15 1
  26   14   58 1
  27   14   59 1
  28   15   16 1
  29   15   60 1
  30   15   61 1
  31   16   17 1
  32   16   19 1
  33   16   62 1
  34   17   18 1
  35   17   63 1
  36   17   64 1
  37   18   65 1
  38   18   66 1
  39   19   20 1
  40   19   24 1
  41   20   21 1
  42   20   67 1
  43   20   68 1
  44   21   22 1
  45   21   69 1
  46   21   70 1
  47   22   23 1
  48   22   25 1
  49   23   24 1
  50   23   71 1
  51   23   72 1
  52   24   73 1
  53   24   74 1
  54   25   45 1
  55   25   46 1
  56   25   75 1
  57   27   47 am
  58   27   29 1
  59   28   29 ar
  60   28   30 ar
  61   29   33 ar
  62   30   31 ar
  63   30   76 1
  64   31   32 ar
  65   32   33 ar
  66   32   34 1
  67   33   77 1
  68   35   36 ar
  69   35   37 ar
  70   35   47 1
  71   36   42 1
  72   36   40 ar
  73   37   38 ar
  74   37   78 1
  75   38   39 ar
  76   38   79 1
  77   39   40 ar
  78   39   41 1
  79   40   80 1
  80   41   44 1
  81   42   43 1
  82   43   81 1
  83   43   82 1
  84   43   83 1
  85   44   84 1
  86   44   85 1
  87   44   86 1
  88   45   87 1
  89   45   88 1
  90   45   89 1
  91   46   90 1
  92   46   91 1
  93   46   92 1
  94   47   48 2
  95   47   49 2
  96   50   52 1
  97   51   52 1
  98   51   93 1
  99   51   94 1
 100   51   95 1
 101   52   96 1
 102   52   97 1

#	End of record

