#	Name: ASD05313144
#	Creating user name:	WinNT
#	Creation time:	15. 06. 2019 20:58

#	Modifying user name:	WinNT
#	Modification time:	15. 06. 2019 20:58

#	Program:	/corina/corina34_cracker 3.40 0067  02.08.2006

@<TRIPOS>MOLECULE
ASD05313144
  45   48    0    0    0
SMALL
NO_CHARGES


@<TRIPOS>ATOM
   1 C1            -0.0720     0.8160     1.0258 C.2     
   2 C2             0.1142    -0.6198     0.5978 C.3     
   3 N3             0.9298     1.7313     1.0524 N.pl3   
   4 N4             1.4575    -0.7185    -0.0040 N.am    
   5 C5             2.5712    -0.0361     0.6721 C.3     
   6 C6             2.3165     1.4759     0.6650 C.3     
   7 N7            -0.8904     2.6388     1.7080 N.2     
   8 N8            -1.1537     1.4080     1.4288 N.2     
   9 C9             0.3775     2.8791     1.4931 C.2     
  10 C10            1.0878     4.1917     1.7025 C.3     
  11 C11            0.4574     5.2795     0.8153 C.3     
  12 C12           -0.0763     6.3698     1.7672 C.3     
  13 C13            0.7680     6.1970     3.0542 C.3     
  14 C14            0.9151     4.6589     3.1625 C.3     
  15 C15            1.6584    -1.4144    -1.1406 C.2     
  16 O16            2.7501    -1.4032    -1.6752 O.2     
  17 C17            0.5517    -2.1911    -1.7368 C.ar    
  18 C18            0.3206    -2.1401    -3.1140 C.ar    
  19 C19           -0.7158    -2.8688    -3.6638 C.ar    
  20 C20           -1.5235    -3.6467    -2.8543 C.ar    
  21 C21           -1.2999    -3.7009    -1.4898 C.ar    
  22 C22           -0.2643    -2.9836    -0.9278 C.ar    
  23 C23           -0.9674    -2.8157    -5.1487 C.3     
  24 F24           -2.0606    -3.6291    -5.4658 F       
  25 F25           -1.2413    -1.4974    -5.5285 F       
  26 F26            0.1661    -3.2714    -5.8304 F       
  27 Cl27           1.3331    -1.1630    -4.1308 Cl      
  28 H28            0.0452    -1.2781     1.4639 H       
  29 H29           -0.6437    -0.8901    -0.1375 H       
  30 H30            2.6431    -0.3883     1.7011 H       
  31 H31            3.5021    -0.2508     0.1473 H       
  32 H32            2.4937     1.8704    -0.3355 H       
  33 H33            2.9878     1.9617     1.3732 H       
  34 H34            2.1466     4.0847     1.4666 H       
  35 H35            1.2105     5.7010     0.1495 H       
  36 H36           -0.3623     4.8580     0.2334 H       
  37 H37            0.0796     7.3599     1.3387 H       
  38 H38           -1.1330     6.2070     1.9794 H       
  39 H39            1.7430     6.6715     2.9431 H       
  40 H40            0.2392     6.5964     3.9196 H       
  41 H41            0.0186     4.2198     3.6001 H       
  42 H42            1.7945     4.4004     3.7523 H       
  43 H43           -2.3329    -4.2144    -3.2892 H       
  44 H44           -1.9350    -4.3100    -0.8637 H       
  45 H45           -0.0882    -3.0313     0.1367 H       
@<TRIPOS>BOND
   1    1    2 1
   2    1    3 1
   3    1    8 2
   4    2    4 1
   5    2   28 1
   6    2   29 1
   7    3    6 1
   8    3    9 1
   9    4    5 1
  10    4   15 am
  11    5    6 1
  12    5   30 1
  13    5   31 1
  14    6   32 1
  15    6   33 1
  16    7    8 1
  17    7    9 2
  18    9   10 1
  19   10   11 1
  20   10   14 1
  21   10   34 1
  22   11   12 1
  23   11   35 1
  24   11   36 1
  25   12   13 1
  26   12   37 1
  27   12   38 1
  28   13   14 1
  29   13   39 1
  30   13   40 1
  31   14   41 1
  32   14   42 1
  33   15   16 2
  34   15   17 1
  35   17   18 ar
  36   17   22 ar
  37   18   19 ar
  38   18   27 1
  39   19   20 ar
  40   19   23 1
  41   20   21 ar
  42   20   43 1
  43   21   22 ar
  44   21   44 1
  45   22   45 1
  46   23   24 1
  47   23   25 1
  48   23   26 1

#	End of record

