#	Name: ASD00190025
#	Creating user name:	WinNT
#	Creation time:	15. 06. 2019 18:33

#	Modifying user name:	WinNT
#	Modification time:	15. 06. 2019 18:33

#	Program:	/corina/corina34_cracker 3.40 0067  02.08.2006

@<TRIPOS>MOLECULE
ASD00190025
  49   53    0    0    0
SMALL
NO_CHARGES


@<TRIPOS>ATOM
   1 C1            -0.0142     1.3576     0.0070 C.ar    
   2 C2             0.0050    -0.0052    -0.0079 C.ar    
   3 C3             1.2069    -0.7047    -0.0375 C.ar    
   4 C4             2.3991    -0.0413    -0.0518 C.ar    
   5 C5             2.4138     1.3571    -0.0371 C.ar    
   6 C6             1.1926     2.0734    -0.0075 C.ar    
   7 C7             3.6589     2.1125    -0.0519 C.ar    
   8 C8             3.5790     3.5085    -0.0360 C.ar    
   9 C9             2.3057     4.1211    -0.0068 C.ar    
  10 N10            1.1984     3.4147     0.0064 N.ar    
  11 N11            4.9900     1.8001    -0.0794 N.pl3   
  12 C12            5.6816     2.9726    -0.0798 C.2     
  13 N13            4.8505     3.9749    -0.0543 N.2     
  14 N14            2.2233     5.5038     0.0091 N.pl3   
  15 C15            0.9754     6.1317    -0.0821 C.ar    
  16 C16            7.1836     3.0926    -0.1059 C.3     
  17 C17            7.7451     2.9941     1.3233 C.3     
  18 C18            8.6770     1.7649     1.3469 C.3     
  19 C19            9.0940     1.5759    -0.1328 C.3     
  20 C20            7.7937     1.9199    -0.9010 C.3     
  21 C21            0.7421     7.3166     0.6036 C.ar    
  22 C22           -0.4892     7.9352     0.5132 C.ar    
  23 C23           -1.4928     7.3735    -0.2624 C.ar    
  24 C24           -1.2606     6.1900    -0.9477 C.ar    
  25 C25           -0.0280     5.5730    -0.8629 C.ar    
  26 O26           -2.7051     7.9831    -0.3505 O.3     
  27 C27           -3.6921     7.3494    -1.1668 C.3     
  28 H28           -0.9562     1.8853     0.0255 H       
  29 H29           -0.9273    -0.5502     0.0037 H       
  30 H30            1.1963    -1.7846    -0.0489 H       
  31 H31            3.3270    -0.5934    -0.0741 H       
  32 H32            5.3709     0.9082    -0.0951 H       
  33 H33            3.0302     6.0370     0.0834 H       
  34 H34            7.4742     4.0416    -0.5566 H       
  35 H35            8.3090     3.8948     1.5659 H       
  36 H36            6.9313     2.8594     2.0358 H       
  37 H37            9.5513     1.9608     1.9676 H       
  38 H38            8.1411     0.8868     1.7073 H       
  39 H39            9.8944     2.2661    -0.3997 H       
  40 H40            9.3928     0.5448    -0.3213 H       
  41 H41            7.1152     1.0668    -0.9036 H       
  42 H42            8.0235     2.2289    -1.9207 H       
  43 H43            1.5232     7.7538     1.2078 H       
  44 H44           -0.6710     8.8565     1.0467 H       
  45 H45           -2.0426     5.7531    -1.5510 H       
  46 H46            0.1526     4.6516    -1.3965 H       
  47 H47           -4.6097     7.9376    -1.1500 H       
  48 H48           -3.3253     7.2776    -2.1907 H       
  49 H49           -3.8943     6.3497    -0.7823 H       
@<TRIPOS>BOND
   1    1    2 ar
   2    1    6 ar
   3    1   28 1
   4    2    3 ar
   5    2   29 1
   6    3    4 ar
   7    3   30 1
   8    4    5 ar
   9    4   31 1
  10    5    6 ar
  11    5    7 ar
  12    6   10 ar
  13    7    8 ar
  14    7   11 1
  15    8    9 ar
  16    8   13 1
  17    9   10 ar
  18    9   14 1
  19   11   12 1
  20   11   32 1
  21   12   13 2
  22   12   16 1
  23   14   15 1
  24   14   33 1
  25   15   21 ar
  26   15   25 ar
  27   16   17 1
  28   16   20 1
  29   16   34 1
  30   17   18 1
  31   17   35 1
  32   17   36 1
  33   18   19 1
  34   18   37 1
  35   18   38 1
  36   19   20 1
  37   19   39 1
  38   19   40 1
  39   20   41 1
  40   20   42 1
  41   21   22 ar
  42   21   43 1
  43   22   23 ar
  44   22   44 1
  45   23   24 ar
  46   23   26 1
  47   24   25 ar
  48   24   45 1
  49   25   46 1
  50   26   27 1
  51   27   47 1
  52   27   48 1
  53   27   49 1

#	End of record

