#	Name: ASD01220001
#	Creating user name:	WinNT
#	Creation time:	15. 06. 2019 19:11

#	Modifying user name:	WinNT
#	Modification time:	15. 06. 2019 19:11

#	Program:	/corina/corina34_cracker 3.40 0067  02.08.2006

@<TRIPOS>MOLECULE
ASD01220001
  15   14    0    0    0
SMALL
NO_CHARGES


@<TRIPOS>ATOM
   1 P1            -0.0180     1.4758     0.0102 P.3     
   2 O2             0.0021    -0.0041     0.0020 O.2     
   3 O3             1.4924     2.0330    -0.0013 O.3     
   4 O4            -0.7967     2.0091    -1.2942 O.3     
   5 O5            -0.7716     1.9950     1.3348 O.3     
   6 C6            -0.2521     1.5081     2.4935 C.2     
   7 C7             0.9507     0.9309     2.4946 C.2     
   8 C8            -1.0176     1.6182     3.7477 C.2     
   9 O9            -2.1132     2.1439     3.7467 O.2     
  10 O10           -0.5028     1.1357     4.8960 O.3     
  11 H11            1.5557     2.9980     0.0033 H       
  12 H12           -0.3973     1.7338    -2.1307 H       
  13 H13            1.3632     0.5443     3.4148 H       
  14 H14            1.5118     0.8503     1.5753 H       
  15 H15           -1.0420     1.2309     5.6931 H       
@<TRIPOS>BOND
   1    1    2 2
   2    1    3 1
   3    1    4 1
   4    1    5 1
   5    3   11 1
   6    4   12 1
   7    5    6 1
   8    6    7 2
   9    6    8 1
  10    7   13 1
  11    7   14 1
  12    8    9 2
  13    8   10 1
  14   10   15 1

#	End of record

