#	Name: ASD02198339
#	Creating user name:	WinNT
#	Creation time:	15. 06. 2019 20:19

#	Modifying user name:	WinNT
#	Modification time:	15. 06. 2019 20:19

#	Program:	/corina/corina34_cracker 3.40 0067  02.08.2006

@<TRIPOS>MOLECULE
ASD02198339
  45   48    0    0    0
SMALL
NO_CHARGES


@<TRIPOS>ATOM
   1 C1             2.0056     2.2503     2.7358 C.2     
   2 C2             1.8476     0.8874     2.9096 C.2     
   3 S3             3.1299     2.4928     1.4012 S.3     
   4 C4             3.2832     0.8029     1.2013 C.2     
   5 N5             2.5492     0.1655     2.0677 N.2     
   6 N6             1.0269     0.3365     3.8807 N.pl3   
   7 C7             1.3768     3.2615     3.4860 C.2     
   8 C8             1.6648     4.6839     3.1980 C.ar    
   9 O9             0.5946     2.9654     4.3734 O.2     
  10 N10            4.0758     0.1970     0.2524 N.pl3   
  11 C11            1.0915     5.3046     2.0857 C.ar    
  12 C12            2.5059     5.4130     4.0395 C.ar    
  13 C13            2.7705     6.7389     3.7655 C.ar    
  14 C14            2.2040     7.3471     2.6593 C.ar    
  15 C15            1.3650     6.6326     1.8232 C.ar    
  16 C16            4.2438    -1.1927     0.2646 C.ar    
  17 C17            3.2007    -2.0151     0.6701 C.ar    
  18 C18            3.3670    -3.3858     0.6814 C.ar    
  19 C19            4.5758    -3.9415     0.2877 C.ar    
  20 C20            5.6185    -3.1205    -0.1172 C.ar    
  21 C21            5.4517    -1.7500    -0.1344 C.ar    
  22 O22            4.7389    -5.2913     0.2991 O.3     
  23 C23            4.9906    -5.8934     1.4909 C.ar    
  24 C24            5.2592    -7.2539     1.5392 C.ar    
  25 C25            5.5152    -7.8635     2.7521 C.ar    
  26 C26            5.5041    -7.1192     3.9173 C.ar    
  27 C27            5.2363    -5.7634     3.8720 C.ar    
  28 C28            4.9853    -5.1478     2.6611 C.ar    
  29 Cl29           0.0384     4.4089     1.0358 Cl      
  30 H30            0.5288     0.9145     4.4796 H       
  31 H31            0.9505    -0.6271     3.9615 H       
  32 H32            4.5177     0.7330    -0.4245 H       
  33 H33            2.9485     4.9403     4.9039 H       
  34 H34            3.4214     7.3038     4.4164 H       
  35 H35            2.4145     8.3855     2.4500 H       
  36 H36            0.9263     7.1131     0.9612 H       
  37 H37            2.2598    -1.5826     0.9770 H       
  38 H38            2.5561    -4.0254     0.9971 H       
  39 H39            6.5593    -3.5538    -0.4231 H       
  40 H40            6.2633    -1.1110    -0.4499 H       
  41 H41            5.2676    -7.8358     0.6294 H       
  42 H42            5.7239    -8.9224     2.7903 H       
  43 H43            5.7045    -7.5977     4.8645 H       
  44 H44            5.2275    -5.1844     4.7837 H       
  45 H45            4.7765    -4.0887     2.6263 H       
@<TRIPOS>BOND
   1    1    2 2
   2    1    3 1
   3    1    7 1
   4    2    6 1
   5    2    5 1
   6    3    4 1
   7    4    5 2
   8    4   10 1
   9    6   30 1
  10    6   31 1
  11    7    8 1
  12    7    9 2
  13    8   11 ar
  14    8   12 ar
  15   10   16 1
  16   10   32 1
  17   11   29 1
  18   11   15 ar
  19   12   13 ar
  20   12   33 1
  21   13   14 ar
  22   13   34 1
  23   14   15 ar
  24   14   35 1
  25   15   36 1
  26   16   17 ar
  27   16   21 ar
  28   17   18 ar
  29   17   37 1
  30   18   19 ar
  31   18   38 1
  32   19   20 ar
  33   19   22 1
  34   20   21 ar
  35   20   39 1
  36   21   40 1
  37   22   23 1
  38   23   24 ar
  39   23   28 ar
  40   24   25 ar
  41   24   41 1
  42   25   26 ar
  43   25   42 1
  44   26   27 ar
  45   26   43 1
  46   27   28 ar
  47   27   44 1
  48   28   45 1

#	End of record

