#	Name: ASD05250090
#	Creating user name:	WinNT
#	Creation time:	15. 06. 2019 20:58

#	Modifying user name:	WinNT
#	Modification time:	15. 06. 2019 20:58

#	Program:	/corina/corina34_cracker 3.40 0067  02.08.2006

@<TRIPOS>MOLECULE
ASD05250090
  56   61    0    0    0
SMALL
NO_CHARGES


@<TRIPOS>ATOM
   1 C1            -1.1422    -0.6364     0.0291 C.ar    
   2 C2            -0.0381    -0.0607    -0.5877 C.ar    
   3 C3             1.1664    -0.7380    -0.6316 C.ar    
   4 C4             1.2801    -1.9903    -0.0635 C.ar    
   5 C5             0.1765    -2.5773     0.5586 C.ar    
   6 C6            -1.0382    -1.8939     0.6032 C.ar    
   7 C7             0.2953    -3.9191     1.1677 C.2     
   8 O8            -0.6575    -4.5729     1.8680 O.3     
   9 C9            -0.1494    -5.7549     2.2424 C.2     
  10 N10            1.0733    -5.8512     1.8007 N.2     
  11 C11            1.3808    -4.7336     1.1256 C.2     
  12 N12           -2.3577     0.0558     0.0758 N.am    
  13 C13           -2.3643     1.3999     0.1747 C.2     
  14 N14           -3.5251     2.0773     0.0734 N.am    
  15 O15           -1.3232     2.0014     0.3554 O.2     
  16 C16           -4.8230     1.3744    -0.0255 C.3     
  17 C17           -3.5558     3.4804     0.0629 C.ar    
  18 C18           -5.6077     1.6407     1.2807 C.3     
  19 C19           -4.7655     4.1471    -0.1404 C.ar    
  20 C20           -6.3828     2.9470     1.0215 C.3     
  21 N21           -5.9572     3.4241    -0.3224 N.3     
  22 C22           -4.7874     5.5350    -0.1629 C.ar    
  23 N23           -2.4378     4.1611     0.2441 N.ar    
  24 C24           -2.4244     5.4895     0.2337 C.ar    
  25 C25           -3.5941     6.2147     0.0277 C.ar    
  26 C26           -1.1448     6.2094     0.4424 C.ar    
  27 C27           -1.1443     7.5861     0.6621 C.ar    
  28 C28            0.0493     8.2507     0.8556 C.ar    
  29 C29            1.2441     7.5535     0.8319 C.ar    
  30 C30            1.2497     6.1877     0.6140 C.ar    
  31 C31            0.0613     5.5114     0.4254 C.ar    
  32 C32            2.5553     5.4356     0.5887 C.3     
  33 C33           -5.6422     2.1787    -1.0760 C.3     
  34 F34            3.6171     6.3410     0.6882 F       
  35 F35            2.6006     4.5436     1.6655 F       
  36 F36            2.6603     4.7238    -0.6112 F       
  37 H37           -0.1213     0.9189    -1.0347 H       
  38 H38            2.0211    -0.2855    -1.1124 H       
  39 H39            2.2225    -2.5165    -0.1004 H       
  40 H40           -1.8952    -2.3430     1.0831 H       
  41 H41           -0.6692    -6.5066     2.8179 H       
  42 H42            2.3211    -4.5196     0.6395 H       
  43 H43           -3.1953    -0.4319     0.0371 H       
  44 H44           -4.7196     0.3143    -0.2571 H       
  45 H45           -6.3000     0.8227     1.4800 H       
  46 H46           -4.9198     1.7679     2.1166 H       
  47 H47           -7.4555     2.7537     1.0283 H       
  48 H48           -6.1305     3.6889     1.7792 H       
  49 H49           -5.7105     6.0716    -0.3251 H       
  50 H50           -3.5726     7.2944     0.0160 H       
  51 H51           -2.0764     8.1313     0.6804 H       
  52 H52            0.0509     9.3173     1.0255 H       
  53 H53            2.1759     8.0779     0.9839 H       
  54 H54            0.0665     4.4442     0.2601 H       
  55 H55           -5.0390     2.3980    -1.9570 H       
  56 H56           -6.5533     1.6472    -1.3509 H       
@<TRIPOS>BOND
   1    1    2 ar
   2    1    6 ar
   3    1   12 1
   4    2    3 ar
   5    2   37 1
   6    3    4 ar
   7    3   38 1
   8    4    5 ar
   9    4   39 1
  10    5    6 ar
  11    5    7 1
  12    6   40 1
  13    7    8 1
  14    7   11 2
  15    8    9 1
  16    9   10 2
  17    9   41 1
  18   10   11 1
  19   11   42 1
  20   12   13 am
  21   12   43 1
  22   13   14 am
  23   13   15 2
  24   14   16 1
  25   14   17 1
  26   16   18 1
  27   16   33 1
  28   16   44 1
  29   17   23 ar
  30   17   19 ar
  31   18   20 1
  32   18   45 1
  33   18   46 1
  34   19   21 1
  35   19   22 ar
  36   20   21 1
  37   20   47 1
  38   20   48 1
  39   21   33 1
  40   22   25 ar
  41   22   49 1
  42   23   24 ar
  43   24   25 ar
  44   24   26 1
  45   25   50 1
  46   26   27 ar
  47   26   31 ar
  48   27   28 ar
  49   27   51 1
  50   28   29 ar
  51   28   52 1
  52   29   30 ar
  53   29   53 1
  54   30   31 ar
  55   30   32 1
  56   31   54 1
  57   32   34 1
  58   32   35 1
  59   32   36 1
  60   33   55 1
  61   33   56 1

#	End of record

