#	Name: ASD08830212
#	Creating user name:	WinNT
#	Creation time:	15. 06. 2019 21:20

#	Modifying user name:	WinNT
#	Modification time:	15. 06. 2019 21:20

#	Program:	/corina/corina34_cracker 3.40 0067  02.08.2006

@<TRIPOS>MOLECULE
ASD08830212
  36   37    0    0    0
SMALL
NO_CHARGES


@<TRIPOS>ATOM
   1 C1            -0.0179     1.4659     0.0101 C.ar    
   2 C2             0.0021    -0.0041     0.0020 C.2     
   3 C3            -1.2926    -0.7753     0.0102 C.3     
   4 C4            -1.0677    -2.1561    -0.6090 C.3     
   5 N5            -2.3518    -2.8623    -0.7107 N.3     
   6 O6             1.0604    -0.5961    -0.0113 O.2     
   7 C7            -1.2373     2.1521     0.0313 C.ar    
   8 C8            -3.2444    -2.1969    -1.6708 C.3     
   9 C9             1.1826     2.1851     0.0025 C.ar    
  10 C10            1.1569     3.5623     0.0106 C.ar    
  11 C11           -0.0554     4.2363     0.0268 C.ar    
  12 C12           -1.2490     3.5295     0.0392 C.ar    
  13 F13           -0.0737     5.5872     0.0356 F       
  14 C14           -2.1504    -4.2717    -1.0770 C.3     
  15 C15           -3.5059    -4.9826    -1.1133 C.3     
  16 O16           -4.3703    -4.3036    -2.0283 O.3     
  17 C17           -4.5888    -2.9286    -1.7012 C.3     
  18 C18           -1.7814    -0.9359     1.4511 C.3     
  19 H19           -2.0411    -0.2348    -0.5692 H       
  20 H20           -0.6358    -2.0425    -1.6033 H       
  21 H21           -0.3864    -2.7296     0.0196 H       
  22 H22           -2.1672     1.6029     0.0410 H       
  23 H23           -3.4000    -1.1620    -1.3662 H       
  24 H24           -2.7943    -2.2211    -2.6633 H       
  25 H25            2.1271     1.6615    -0.0093 H       
  26 H26            2.0826     4.1185     0.0048 H       
  27 H27           -2.1894     4.0603     0.0514 H       
  28 H28           -1.6829    -4.3291    -2.0599 H       
  29 H29           -1.5076    -4.7514    -0.3389 H       
  30 H30           -3.3676    -6.0133    -1.4399 H       
  31 H31           -3.9492    -4.9720    -0.1176 H       
  32 H32           -5.0637    -2.8583    -0.7226 H       
  33 H33           -5.2338    -2.4738    -2.4530 H       
  34 H34           -1.0329    -1.4764     2.0306 H       
  35 H35           -1.9417     0.0478     1.8923 H       
  36 H36           -2.7178    -1.4937     1.4571 H       
@<TRIPOS>BOND
   1    1    2 1
   2    1    9 ar
   3    1    7 ar
   4    2    3 1
   5    2    6 2
   6    3    4 1
   7    3   18 1
   8    3   19 1
   9    4    5 1
  10    4   20 1
  11    4   21 1
  12    5   14 1
  13    5    8 1
  14    7   12 ar
  15    7   22 1
  16    8   17 1
  17    8   23 1
  18    8   24 1
  19    9   10 ar
  20    9   25 1
  21   10   11 ar
  22   10   26 1
  23   11   12 ar
  24   11   13 1
  25   12   27 1
  26   14   15 1
  27   14   28 1
  28   14   29 1
  29   15   16 1
  30   15   30 1
  31   15   31 1
  32   16   17 1
  33   17   32 1
  34   17   33 1
  35   18   34 1
  36   18   35 1
  37   18   36 1

#	End of record

