#	Name: ASD01917315
#	Creating user name:	WinNT
#	Creation time:	15. 06. 2019 20:09

#	Modifying user name:	WinNT
#	Modification time:	15. 06. 2019 20:09

#	Program:	/corina/corina34_cracker 3.40 0067  02.08.2006

@<TRIPOS>MOLECULE
ASD01917315
  48   51    0    0    0
SMALL
NO_CHARGES


@<TRIPOS>ATOM
   1 C1            -0.0168     1.3881     0.0097 C.ar    
   2 C2             0.0021    -0.0041     0.0020 C.ar    
   3 C3             1.2224    -0.6623    -0.0131 C.ar    
   4 C4             2.3822     0.0948    -0.0201 C.ar    
   5 C5             2.2900     1.4806    -0.0118 C.ar    
   6 N6             1.1170     2.0792     0.0026 N.ar    
   7 C7            -1.3135     2.1047     0.0197 C.2     
   8 O8            -2.3543     1.4776     0.0212 O.2     
   9 N9            -1.3387     3.4522     0.0271 N.am    
  10 C10           -2.6208     4.1609     0.0370 C.3     
  11 C11           -3.4823     3.8045     1.2612 C.3     
  12 C12           -4.8858     4.3821     1.0683 C.3     
  13 C13           -4.8114     5.8902     0.8222 C.3     
  14 C14           -3.8927     6.1568    -0.3831 C.3     
  15 C15           -4.2830     5.1539    -1.4933 C.3     
  16 C16           -3.4684     3.8758    -1.2243 C.3     
  17 C17           -2.4682     5.7049     0.0340 C.3     
  18 N18           -3.9494     7.5491    -0.8353 N.am    
  19 C19           -5.1210     8.0797    -1.2381 C.2     
  20 O20           -6.1304     7.4032    -1.2261 O.2     
  21 C21           -5.1783     9.4879    -1.6954 C.ar    
  22 C22           -6.3924    10.0305    -2.1105 C.ar    
  23 C23           -6.4303    11.3492    -2.5351 C.ar    
  24 C24           -5.2521    12.0796    -2.5298 C.ar    
  25 C25           -4.0802    11.4754    -2.1037 C.ar    
  26 N26           -4.0736    10.2234    -1.7010 N.ar    
  27 F27            3.4181     2.2241    -0.0186 F       
  28 H28           -0.9215    -0.5638     0.0082 H       
  29 H29            1.2676    -1.7413    -0.0190 H       
  30 H30            3.3484    -0.3876    -0.0316 H       
  31 H31           -0.5078     3.9529     0.0259 H       
  32 H32           -3.5444     2.7208     1.3604 H       
  33 H33           -3.0334     4.2292     2.1591 H       
  34 H34           -5.3599     3.9001     0.2133 H       
  35 H35           -5.4803     4.1914     1.9618 H       
  36 H36           -5.8093     6.2752     0.6123 H       
  37 H37           -4.4067     6.3843     1.7055 H       
  38 H38           -5.3497     4.9359    -1.4431 H       
  39 H39           -4.0289     5.5610    -2.4720 H       
  40 H40           -2.8179     3.6607    -2.0721 H       
  41 H41           -4.1387     3.0355    -1.0432 H       
  42 H42           -2.2163     6.0747     1.0279 H       
  43 H43           -1.7270     6.0230    -0.6991 H       
  44 H44           -3.1436     8.0891    -0.8448 H       
  45 H45           -7.2912     9.4319    -2.1018 H       
  46 H46           -7.3565    11.7974    -2.8630 H       
  47 H47           -5.2476    13.1095    -2.8550 H       
  48 H48           -3.1605    12.0416    -2.0983 H       
@<TRIPOS>BOND
   1    1    2 ar
   2    1    6 ar
   3    1    7 1
   4    2    3 ar
   5    2   28 1
   6    3    4 ar
   7    3   29 1
   8    4    5 ar
   9    4   30 1
  10    5    6 ar
  11    5   27 1
  12    7    8 2
  13    7    9 am
  14    9   10 1
  15    9   31 1
  16   10   11 1
  17   10   16 1
  18   10   17 1
  19   11   12 1
  20   11   32 1
  21   11   33 1
  22   12   13 1
  23   12   34 1
  24   12   35 1
  25   13   14 1
  26   13   36 1
  27   13   37 1
  28   14   15 1
  29   14   17 1
  30   14   18 1
  31   15   16 1
  32   15   38 1
  33   15   39 1
  34   16   40 1
  35   16   41 1
  36   17   42 1
  37   17   43 1
  38   18   19 am
  39   18   44 1
  40   19   20 2
  41   19   21 1
  42   21   22 ar
  43   21   26 ar
  44   22   23 ar
  45   22   45 1
  46   23   24 ar
  47   23   46 1
  48   24   25 ar
  49   24   47 1
  50   25   26 ar
  51   25   48 1

#	End of record

