#	Name: ASD01871005
#	Creating user name:	WinNT
#	Creation time:	15. 06. 2019 19:39

#	Modifying user name:	WinNT
#	Modification time:	15. 06. 2019 19:39

#	Program:	/corina/corina34_cracker 3.40 0067  02.08.2006

@<TRIPOS>MOLECULE
ASD01871005
  42   44    0    0    0
SMALL
NO_CHARGES


@<TRIPOS>ATOM
   1 C1            -0.0168     1.3840     0.0097 C.ar    
   2 C2             0.0021    -0.0041     0.0020 C.ar    
   3 C3             1.2120    -0.6845    -0.0127 C.ar    
   4 C4             2.3993     0.0171    -0.0198 C.ar    
   5 C5             2.3836     1.4108    -0.0126 C.ar    
   6 C6             1.1673     2.0912     0.0021 C.ar    
   7 C7             3.6592     2.1686    -0.0197 C.2     
   8 C8             3.7868     3.3752    -0.6914 C.2     
   9 C9             5.0153     3.9430    -0.6021 C.2     
  10 S10            5.9546     2.8705     0.3601 S.3     
  11 N11            4.7204     1.7356     0.6120 N.2     
  12 C12            2.6526     4.0043    -1.4587 C.3     
  13 N13            5.4306     5.1459    -1.1723 N.am    
  14 C14            6.6944     5.5772    -0.9898 C.2     
  15 C15            7.1432     6.8772    -1.6059 C.3     
  16 O16            7.4705     4.9192    -0.3296 O.2     
  17 C17            8.1659     6.8048    -2.7417 C.3     
  18 C18            8.5896     7.3124    -1.3619 C.3     
  19 C19            8.8609     8.8108    -1.2132 C.3     
  20 O20           -1.1661    -0.6981     0.0094 O.3     
  21 C21           -1.0736    -2.1241     0.0009 C.3     
  22 C22           -2.4800    -2.7264     0.0111 C.3     
  23 H23           -0.9596     1.9107     0.0170 H       
  24 H24            1.2236    -1.7645    -0.0183 H       
  25 H25            3.3403    -0.5128    -0.0305 H       
  26 H26            1.1520     3.1710     0.0074 H       
  27 H27            2.0850     4.6585    -0.7969 H       
  28 H28            3.0539     4.5864    -2.2883 H       
  29 H29            1.9985     3.2231    -1.8459 H       
  30 H30            4.8100     5.6722    -1.7002 H       
  31 H31            6.3848     7.6581    -1.6607 H       
  32 H32            8.5140     5.8169    -3.0432 H       
  33 H33            8.0804     7.5383    -3.5434 H       
  34 H34            9.2165     6.6585    -0.7558 H       
  35 H35            8.5544     9.3276    -2.1226 H       
  36 H36            8.2961     9.2000    -0.3661 H       
  37 H37            9.9257     8.9723    -1.0449 H       
  38 H38           -0.5459    -2.4486    -0.8959 H       
  39 H39           -0.5289    -2.4581     0.8839 H       
  40 H40           -3.0078    -2.4019     0.9079 H       
  41 H41           -3.0247    -2.3924    -0.8720 H       
  42 H42           -2.4095    -3.8141     0.0045 H       
@<TRIPOS>BOND
   1    1    2 ar
   2    1    6 ar
   3    1   23 1
   4    2    3 ar
   5    2   20 1
   6    3    4 ar
   7    3   24 1
   8    4    5 ar
   9    4   25 1
  10    5    6 ar
  11    5    7 1
  12    6   26 1
  13    7    8 1
  14    7   11 2
  15    8    9 2
  16    8   12 1
  17    9   10 1
  18    9   13 1
  19   10   11 1
  20   12   27 1
  21   12   28 1
  22   12   29 1
  23   13   14 am
  24   13   30 1
  25   14   16 2
  26   14   15 1
  27   15   17 1
  28   15   18 1
  29   15   31 1
  30   17   18 1
  31   17   32 1
  32   17   33 1
  33   18   19 1
  34   18   34 1
  35   19   35 1
  36   19   36 1
  37   19   37 1
  38   20   21 1
  39   21   22 1
  40   21   38 1
  41   21   39 1
  42   22   40 1
  43   22   41 1
  44   22   42 1

#	End of record

