#	Name: ASD01209296
#	Creating user name:	WinNT
#	Creation time:	15. 06. 2019 19:11

#	Modifying user name:	WinNT
#	Modification time:	15. 06. 2019 19:11

#	Program:	/corina/corina34_cracker 3.40 0067  02.08.2006

@<TRIPOS>MOLECULE
ASD01209296
  67   69    0    0    0
SMALL
NO_CHARGES


@<TRIPOS>ATOM
   1 C1            -0.0849     1.4449     0.3573 C.3     
   2 C2            -0.4130     0.0638     0.8632 C.ar    
   3 C3            -1.1535    -0.8015     0.0797 C.ar    
   4 C4            -1.4546    -2.0683     0.5439 C.ar    
   5 C5            -1.0148    -2.4700     1.7913 C.ar    
   6 C6            -0.2735    -1.6050     2.5744 C.ar    
   7 C7             0.0312    -0.3397     2.1085 C.ar    
   8 S8            -1.3995    -4.0843     2.3834 S.o2    
   9 O9            -1.3752    -3.9537     3.7981 O.2     
  10 O10           -2.5959    -4.4322     1.7002 O.2     
  11 C11           -0.0194    -5.1155     1.8155 C.3     
  12 C12            1.4112     1.6120     0.2875 C.2     
  13 O13            2.1391     0.7471     0.7267 O.2     
  14 N14            1.9403     2.7226    -0.2631 N.am    
  15 C15            3.3237     2.8911    -0.3001 C.ar    
  16 P16            9.7916     3.6976    -1.9285 P.3     
  17 O17           10.0979     4.9967    -1.2889 O.2     
  18 O18           10.2824     3.7254    -3.4616 O.3     
  19 O19           10.5555     2.5188    -1.1418 O.3     
  20 C20           11.9670     2.5192    -0.9190 C.3     
  21 C21           -0.6708     2.4894     1.3094 C.3     
  22 C22           -2.1954     2.3626     1.3298 C.3     
  23 C23           -2.7871     3.2906     2.4052 C.3     
  24 C24           -3.7128     4.2823     1.6707 C.3     
  25 C25           -4.0968     3.5463     0.3631 C.3     
  26 C26           -2.7821     2.8228    -0.0206 C.3     
  27 C27            4.1557     1.7852    -0.1704 C.ar    
  28 C28           11.6226     4.0406    -3.8443 C.3     
  29 C29            5.5273     1.9666    -0.2090 C.ar    
  30 C30            6.0207     3.2530    -0.3766 C.ar    
  31 C31            5.1354     4.3061    -0.4990 C.ar    
  32 N32            3.8327     4.1020    -0.4639 N.ar    
  33 C33            7.5068     3.4983    -0.4240 C.3     
  34 C34            7.9939     3.4009    -1.8711 C.3     
  35 H35           -0.5122     1.5788    -0.6365 H       
  36 H36           -1.4971    -0.4876    -0.8949 H       
  37 H37           -2.0337    -2.7441    -0.0680 H       
  38 H38            0.0698    -1.9187     3.5492 H       
  39 H39            0.6103     0.3360     2.7203 H       
  40 H40            0.9128    -4.7391     2.2367 H       
  41 H41           -0.1761    -6.1438     2.1413 H       
  42 H42            0.0345    -5.0833     0.7273 H       
  43 H43            1.3586     3.4047    -0.6335 H       
  44 H44           12.2481     1.6219    -0.3676 H       
  45 H45           12.4861     2.5342    -1.8773 H       
  46 H46           12.2436     3.4017    -0.3421 H       
  47 H47           -0.2792     2.3261     2.3134 H       
  48 H48           -0.3937     3.4872     0.9692 H       
  49 H49           -2.4812     1.3299     1.5294 H       
  50 H50           -3.3609     2.7082     3.1262 H       
  51 H51           -1.9882     3.8312     2.9126 H       
  52 H52           -4.6013     4.4884     2.2675 H       
  53 H53           -3.1802     5.2064     1.4461 H       
  54 H54           -4.8948     2.8265     0.5451 H       
  55 H55           -4.3860     4.2580    -0.4101 H       
  56 H56           -2.0992     3.5112    -0.5185 H       
  57 H57           -2.9914     1.9639    -0.6582 H       
  58 H58            3.7376     0.7979    -0.0409 H       
  59 H59           11.8716     5.0450    -3.5017 H       
  60 H60           12.3076     3.3226    -3.3933 H       
  61 H61           11.7109     3.9946    -4.9297 H       
  62 H62            6.1984     1.1262    -0.1105 H       
  63 H63            5.5146     5.3088    -0.6297 H       
  64 H64            7.7236     4.4927    -0.0338 H       
  65 H65            8.0180     2.7507     0.1825 H       
  66 H66            7.4827     4.1486    -2.4776 H       
  67 H67            7.7771     2.4065    -2.2613 H       
@<TRIPOS>BOND
   1    1    2 1
   2    1   12 1
   3    1   21 1
   4    1   35 1
   5    2    3 ar
   6    2    7 ar
   7    3    4 ar
   8    3   36 1
   9    4    5 ar
  10    4   37 1
  11    5    6 ar
  12    5    8 1
  13    6    7 ar
  14    6   38 1
  15    7   39 1
  16    8    9 2
  17    8   10 2
  18    8   11 1
  19   11   40 1
  20   11   41 1
  21   11   42 1
  22   12   13 2
  23   12   14 am
  24   14   15 1
  25   14   43 1
  26   15   27 ar
  27   15   32 ar
  28   16   17 2
  29   16   18 1
  30   16   19 1
  31   16   34 1
  32   18   28 1
  33   19   20 1
  34   20   44 1
  35   20   45 1
  36   20   46 1
  37   21   22 1
  38   21   47 1
  39   21   48 1
  40   22   23 1
  41   22   26 1
  42   22   49 1
  43   23   24 1
  44   23   50 1
  45   23   51 1
  46   24   25 1
  47   24   52 1
  48   24   53 1
  49   25   26 1
  50   25   54 1
  51   25   55 1
  52   26   56 1
  53   26   57 1
  54   27   29 ar
  55   27   58 1
  56   28   59 1
  57   28   60 1
  58   28   61 1
  59   29   30 ar
  60   29   62 1
  61   30   31 ar
  62   30   33 1
  63   31   32 ar
  64   31   63 1
  65   33   34 1
  66   33   64 1
  67   33   65 1
  68   34   66 1
  69   34   67 1

#	End of record

