#	Name: ASD01913116
#	Creating user name:	WinNT
#	Creation time:	15. 06. 2019 20:01

#	Modifying user name:	WinNT
#	Modification time:	15. 06. 2019 20:01

#	Program:	/corina/corina34_cracker 3.40 0067  02.08.2006

@<TRIPOS>MOLECULE
ASD01913116
  43   46    0    0    0
SMALL
NO_CHARGES


@<TRIPOS>ATOM
   1 C1             0.0571     0.4120     1.1181 C.2     
   2 C2             0.1142    -0.8141     1.7087 C.2     
   3 C3            -1.2089    -1.2415     1.9191 C.2     
   4 C4            -2.0306    -0.2743     1.4559 C.2     
   5 N5            -1.2633     0.7468     0.9670 N.pl3   
   6 C6             1.2161     1.2393     0.7164 C.2     
   7 N7             2.5270     0.9175     0.8678 N.2     
   8 C8             3.2496     1.8914     0.3962 C.2     
   9 O9             2.4418     2.8546    -0.0661 O.3     
  10 C10            1.1678     2.4588     0.1223 C.2     
  11 F11           -1.5897    -2.4089     2.4824 F       
  12 C12            4.7560     1.9295     0.3736 C.3     
  13 C13            5.2423     2.0492    -1.0726 C.3     
  14 C14            6.7724     2.0549    -1.0992 C.3     
  15 C15            7.2883     3.2649    -0.3140 C.3     
  16 N16            6.7083     3.2350     1.0357 N.am    
  17 C17            5.2490     3.1380     1.1755 C.3     
  18 C18            7.5000     3.2953     2.1247 C.2     
  19 C19            8.9691     3.3080     1.9702 C.ar    
  20 O20            7.0052     3.3392     3.2343 O.2     
  21 C21            9.5734     4.2085     1.0903 C.ar    
  22 C22           10.9446     4.2165     0.9502 C.ar    
  23 C23           11.7238     3.3326     1.6810 C.ar    
  24 C24           11.1289     2.4361     2.5557 C.ar    
  25 C25            9.7590     2.4235     2.7077 C.ar    
  26 F26           13.0673     3.3445     1.5400 F       
  27 H27            1.0106    -1.3581     1.9674 H       
  28 H28           -3.1102    -0.3012     1.4725 H       
  29 H29           -1.5977     1.5681     0.5737 H       
  30 H30            0.2777     3.0098    -0.1431 H       
  31 H31            5.1498     1.0141     0.8152 H       
  32 H32            4.8722     1.2029    -1.6514 H       
  33 H33            4.8680     2.9767    -1.5059 H       
  34 H34            7.1477     1.1386    -0.6435 H       
  35 H35            7.1181     2.1166    -2.1311 H       
  36 H36            8.3752     3.2199    -0.2457 H       
  37 H37            6.9896     4.1831    -0.8197 H       
  38 H38            4.7840     4.0459     0.7912 H       
  39 H39            4.9904     3.0093     2.2265 H       
  40 H40            8.9673     4.8972     0.5203 H       
  41 H41           11.4129     4.9123     0.2698 H       
  42 H42           11.7405     1.7495     3.1223 H       
  43 H43            9.2967     1.7251     3.3895 H       
@<TRIPOS>BOND
   1    1    2 2
   2    1    6 1
   3    1    5 1
   4    2    3 1
   5    2   27 1
   6    3    4 2
   7    3   11 1
   8    4    5 1
   9    4   28 1
  10    5   29 1
  11    6    7 1
  12    6   10 2
  13    7    8 2
  14    8    9 1
  15    8   12 1
  16    9   10 1
  17   10   30 1
  18   12   13 1
  19   12   17 1
  20   12   31 1
  21   13   14 1
  22   13   32 1
  23   13   33 1
  24   14   15 1
  25   14   34 1
  26   14   35 1
  27   15   16 1
  28   15   36 1
  29   15   37 1
  30   16   17 1
  31   16   18 am
  32   17   38 1
  33   17   39 1
  34   18   19 1
  35   18   20 2
  36   19   21 ar
  37   19   25 ar
  38   21   22 ar
  39   21   40 1
  40   22   23 ar
  41   22   41 1
  42   23   24 ar
  43   23   26 1
  44   24   25 ar
  45   24   42 1
  46   25   43 1

#	End of record

