#	Name: ASD01231316
#	Creating user name:	WinNT
#	Creation time:	15. 06. 2019 19:15

#	Modifying user name:	WinNT
#	Modification time:	15. 06. 2019 19:15

#	Program:	/corina/corina34_cracker 3.40 0067  02.08.2006

@<TRIPOS>MOLECULE
ASD01231316
  20   21    0    0    0
SMALL
NO_CHARGES


@<TRIPOS>ATOM
   1 C1            -0.0184     1.5054     0.0103 C.2     
   2 C2             0.0021    -0.0041     0.0020 C.3     
   3 C3             1.4875    -0.3895    -0.0142 C.3     
   4 C4             2.2637     0.9056    -0.0147 C.ar    
   5 C5             3.6274     1.1336    -0.0269 C.ar    
   6 C6             4.1191     2.4265    -0.0251 C.ar    
   7 C7             3.2469     3.5019    -0.0105 C.ar    
   8 C8             1.8864     3.2882     0.0022 C.ar    
   9 C9             1.3798     1.9813    -0.0005 C.ar    
  10 Br10           5.9861     2.7259    -0.0418 Br      
  11 N11           -1.0751     2.2512     0.0196 N.2     
  12 O12           -2.3607     1.6575     0.0228 O.3     
  13 H13           -0.4793    -0.3933     0.8992 H       
  14 H14           -0.4964    -0.3837    -0.8899 H       
  15 H15            1.7326    -0.9722     0.8738 H       
  16 H16            1.7155    -0.9626    -0.9130 H       
  17 H17            4.3118     0.2982    -0.0376 H       
  18 H18            3.6342     4.5100    -0.0088 H       
  19 H19            1.2087     4.1290     0.0143 H       
  20 H20           -3.0881     2.2946     0.0298 H       
@<TRIPOS>BOND
   1    1    2 1
   2    1    9 1
   3    1   11 2
   4    2    3 1
   5    2   13 1
   6    2   14 1
   7    3    4 1
   8    3   15 1
   9    3   16 1
  10    4    5 ar
  11    4    9 ar
  12    5    6 ar
  13    5   17 1
  14    6    7 ar
  15    6   10 1
  16    7    8 ar
  17    7   18 1
  18    8    9 ar
  19    8   19 1
  20   11   12 1
  21   12   20 1

#	End of record

