#	Name: ASD01885370
#	Creating user name:	WinNT
#	Creation time:	15. 06. 2019 19:49

#	Modifying user name:	WinNT
#	Modification time:	15. 06. 2019 19:49

#	Program:	/corina/corina34_cracker 3.40 0067  02.08.2006

@<TRIPOS>MOLECULE
ASD01885370
  56   59    0    0    0
SMALL
NO_CHARGES


@<TRIPOS>ATOM
   1 C1             0.1310     0.9098     0.6812 C.ar    
   2 C2             0.0437    -0.4001     0.3234 C.ar    
   3 C3             1.1881    -1.1558     0.0779 C.ar    
   4 C4             2.4285    -0.6022     0.1897 C.ar    
   5 C5             2.5567     0.7436     0.5561 C.ar    
   6 C6             1.3950     1.5167     0.8069 C.ar    
   7 C7             3.8304     1.3537     0.6825 C.ar    
   8 C8             3.8765     2.6919     1.0494 C.ar    
   9 C9             2.6833     3.3850     1.2792 C.ar    
  10 N10            1.5070     2.7990     1.1558 N.ar    
  11 C11            5.0724     0.5874     0.4315 C.2     
  12 C12            2.7414     4.8141     1.6707 C.2     
  13 O13            3.8161     5.3685     1.7883 O.2     
  14 N14            1.6021     5.4978     1.8962 N.am    
  15 C15           -1.3125    -1.0439     0.1910 C.3     
  16 N16           -1.7401    -1.0004    -1.2137 N.3     
  17 C17           -1.9524     0.3851    -1.6572 C.3     
  18 C18           -2.3379     0.3875    -3.1388 C.3     
  19 O19           -3.5002    -0.4247    -3.3252 O.3     
  20 C20           -3.3285    -1.7807    -2.9043 C.3     
  21 C21           -2.9530    -1.8052    -1.4203 C.3     
  22 C22            5.4019    -0.6699     0.9785 C.2     
  23 N23            6.5751    -1.0159     0.5206 N.2     
  24 N24            7.0387    -0.0045    -0.3291 N.pl3   
  25 C25            6.1070     0.9667    -0.3776 C.2     
  26 C26            8.3160    -0.0048    -1.0464 C.3     
  27 C27           -2.6383     1.8195    -3.5862 C.3     
  28 F28           -1.5025     2.6145    -3.3990 F       
  29 F29           -2.9905     1.8209    -4.9401 F       
  30 F30           -3.6966     2.3325    -2.8285 F       
  31 C31           -2.6895    -3.2477    -0.9837 C.3     
  32 C32           -4.1003    -1.2216    -0.5934 C.3     
  33 H33           -0.7660     1.4829     0.8637 H       
  34 H34            1.0910    -2.1937    -0.2044 H       
  35 H35            3.3082    -1.1985    -0.0028 H       
  36 H36            4.8265     3.1941     1.1570 H       
  37 H37            0.7441     5.0552     1.8023 H       
  38 H38            1.6401     6.4327     2.1523 H       
  39 H39           -1.2562    -2.0809     0.5218 H       
  40 H40           -2.0323    -0.5046     0.8068 H       
  41 H41           -2.7538     0.8358    -1.0718 H       
  42 H42           -1.0344     0.9562    -1.5190 H       
  43 H43           -1.5147    -0.0140    -3.7298 H       
  44 H44           -4.2588    -2.3287    -3.0535 H       
  45 H45           -2.5340    -2.2453    -3.4885 H       
  46 H46            4.7910    -1.2459     1.6578 H       
  47 H47            6.1673     1.8806    -0.9500 H       
  48 H48            8.1840    -0.4699    -2.0233 H       
  49 H49            8.6602     1.0213    -1.1760 H       
  50 H50            9.0543    -0.5660    -0.4736 H       
  51 H51           -2.4185    -3.2640     0.0720 H       
  52 H52           -3.5891    -3.8438    -1.1371 H       
  53 H53           -1.8733    -3.6629    -1.5748 H       
  54 H54           -4.3226    -0.2128    -0.9414 H       
  55 H55           -4.9851    -1.8481    -0.7065 H       
  56 H56           -3.8108    -1.1880     0.4569 H       
@<TRIPOS>BOND
   1    1    2 ar
   2    1    6 ar
   3    1   33 1
   4    2    3 ar
   5    2   15 1
   6    3    4 ar
   7    3   34 1
   8    4    5 ar
   9    4   35 1
  10    5    7 ar
  11    5    6 ar
  12    6   10 ar
  13    7    8 ar
  14    7   11 1
  15    8    9 ar
  16    8   36 1
  17    9   10 ar
  18    9   12 1
  19   11   22 1
  20   11   25 2
  21   12   13 2
  22   12   14 am
  23   14   37 1
  24   14   38 1
  25   15   16 1
  26   15   39 1
  27   15   40 1
  28   16   17 1
  29   16   21 1
  30   17   18 1
  31   17   41 1
  32   17   42 1
  33   18   19 1
  34   18   27 1
  35   18   43 1
  36   19   20 1
  37   20   21 1
  38   20   44 1
  39   20   45 1
  40   21   31 1
  41   21   32 1
  42   22   23 2
  43   22   46 1
  44   23   24 1
  45   24   25 1
  46   24   26 1
  47   25   47 1
  48   26   48 1
  49   26   49 1
  50   26   50 1
  51   27   28 1
  52   27   29 1
  53   27   30 1
  54   31   51 1
  55   31   52 1
  56   31   53 1
  57   32   54 1
  58   32   55 1
  59   32   56 1

#	End of record

