#	Name: ASD03320200
#	Creating user name:	WinNT
#	Creation time:	15. 06. 2019 20:36

#	Modifying user name:	WinNT
#	Modification time:	15. 06. 2019 20:36

#	Program:	/corina/corina34_cracker 3.40 0067  02.08.2006

@<TRIPOS>MOLECULE
ASD03320200
  44   46    0    0    0
SMALL
NO_CHARGES


@<TRIPOS>ATOM
   1 C1            -0.0074     1.3432    -0.1946 C.ar    
   2 C2             0.0219    -0.0349     0.0268 C.ar    
   3 N3            -1.0894    -0.7415     0.0446 N.ar    
   4 C4            -2.2749    -0.1864    -0.1443 C.ar    
   5 C5            -2.3933     1.1933    -0.3740 C.ar    
   6 C6            -1.2410     1.9756    -0.3944 C.ar    
   7 C7             1.2449     2.1246    -0.2118 C.2     
   8 O8             1.2102     3.3245    -0.4054 O.2     
   9 N9             2.4267     1.5079    -0.0130 N.am    
  10 C10            3.6212     2.2302    -0.1262 C.ar    
  11 C11           -3.7221     1.8080    -0.5856 C.2     
  12 C12            3.6737     3.5549     0.2867 C.ar    
  13 C13            4.8519     4.2663     0.1752 C.ar    
  14 C14            5.9830     3.6579    -0.3492 C.ar    
  15 C15            5.9311     2.3346    -0.7624 C.ar    
  16 C16            4.7552     1.6202    -0.6462 C.ar    
  17 O17            7.1428     4.3590    -0.4588 O.3     
  18 C18            8.2681     3.6700    -1.0075 C.3     
  19 F19            7.9648     3.2401    -2.3038 F       
  20 F20            9.3688     4.5325    -1.0477 F       
  21 F21            8.5721     2.5628    -0.2082 F       
  22 O22           -3.3875    -0.9583    -0.1162 O.3     
  23 C23           -4.1455     3.0108    -0.0942 C.2     
  24 C24           -5.4561     3.2123    -0.5276 C.2     
  25 N25           -5.8198     2.1831    -1.2499 N.2     
  26 N26           -4.7489     1.2823    -1.3115 N.pl3   
  27 C27           -3.2022    -2.3551     0.1214 C.3     
  28 C28           -4.5613    -3.0578     0.1176 C.3     
  29 O29           -5.1395    -2.9696    -1.1863 O.3     
  30 H30            0.9692    -0.5287     0.1853 H       
  31 H31           -1.2965     3.0400    -0.5684 H       
  32 H32            2.4500     0.5638     0.2085 H       
  33 H33            2.7932     4.0289     0.6946 H       
  34 H34            4.8929     5.2968     0.4959 H       
  35 H35            6.8120     1.8617    -1.1709 H       
  36 H36            4.7149     0.5901    -0.9679 H       
  37 H37           -3.5681     3.6854     0.5206 H       
  38 H38           -6.0685     4.0734    -0.3041 H       
  39 H39           -4.7403     0.4353    -1.7841 H       
  40 H40           -2.5730    -2.7767    -0.6625 H       
  41 H41           -2.7218    -2.4984     1.0893 H       
  42 H42           -4.4292    -4.1059     0.3863 H       
  43 H43           -5.2206    -2.5776     0.8407 H       
  44 H44           -6.0045    -3.3949    -1.2625 H       
@<TRIPOS>BOND
   1    1    2 ar
   2    1    7 1
   3    1    6 ar
   4    2    3 ar
   5    2   30 1
   6    3    4 ar
   7    4    5 ar
   8    4   22 1
   9    5    6 ar
  10    5   11 1
  11    6   31 1
  12    7    8 2
  13    7    9 am
  14    9   10 1
  15    9   32 1
  16   10   12 ar
  17   10   16 ar
  18   11   23 2
  19   11   26 1
  20   12   13 ar
  21   12   33 1
  22   13   14 ar
  23   13   34 1
  24   14   15 ar
  25   14   17 1
  26   15   16 ar
  27   15   35 1
  28   16   36 1
  29   17   18 1
  30   18   19 1
  31   18   20 1
  32   18   21 1
  33   22   27 1
  34   23   24 1
  35   23   37 1
  36   24   25 2
  37   24   38 1
  38   25   26 1
  39   26   39 1
  40   27   28 1
  41   27   40 1
  42   27   41 1
  43   28   29 1
  44   28   42 1
  45   28   43 1
  46   29   44 1

#	End of record

