#	Name: ASD01900151
#	Creating user name:	WinNT
#	Creation time:	15. 06. 2019 19:51

#	Modifying user name:	WinNT
#	Modification time:	15. 06. 2019 19:51

#	Program:	/corina/corina34_cracker 3.40 0067  02.08.2006

@<TRIPOS>MOLECULE
ASD01900151
  39   41    0    0    0
SMALL
NO_CHARGES


@<TRIPOS>ATOM
   1 C1             0.0086     1.3398    -0.0077 C.ar    
   2 C2            -1.1433     1.7055    -0.6852 C.ar    
   3 C3            -1.1603     2.8888    -1.4075 C.ar    
   4 C4            -0.0150     3.6687    -1.4254 C.ar    
   5 C5             1.1076     3.2389    -0.7208 C.ar    
   6 N6             1.0821     2.0990    -0.0415 N.ar    
   7 C7             2.3397     4.0611    -0.7299 C.2     
   8 N8             3.4288     3.6507    -0.0502 N.am    
   9 O9             2.3686     5.1058    -1.3502 O.2     
  10 C10            4.6230     4.3754    -0.1383 C.ar    
  11 C11            4.5891     5.7606    -0.2320 C.ar    
  12 C12            5.7669     6.4761    -0.3189 C.ar    
  13 C13            6.9856     5.8111    -0.3121 C.ar    
  14 C14            7.0201     4.4245    -0.2178 C.ar    
  15 C15            5.8421     3.7095    -0.1260 C.ar    
  16 N16            8.1800     6.5369    -0.4006 N.am    
  17 C17            8.1964     7.8481    -0.0893 C.2     
  18 C18            9.4250     8.6416    -0.2979 C.ar    
  19 O19            7.2000     8.3780     0.3633 O.2     
  20 C20            9.4457    10.0010     0.0237 C.ar    
  21 C21           10.5984    10.7362    -0.1743 C.ar    
  22 C22           11.7290    10.1292    -0.6892 C.ar    
  23 C23           11.7145     8.7827    -1.0102 C.ar    
  24 C24           10.5729     8.0350    -0.8121 C.ar    
  25 Cl25           8.0266    10.7642     0.6698 Cl      
  26 Cl26           8.5436     3.5924    -0.2097 Cl      
  27 H27            0.0238     0.4209     0.5596 H       
  28 H28           -2.0194     1.0748    -0.6513 H       
  29 H29           -2.0458     3.1955    -1.9442 H       
  30 H30            0.0073     4.5964    -1.9780 H       
  31 H31            3.3850     2.8530     0.4999 H       
  32 H32            3.6413     6.2783    -0.2374 H       
  33 H33            5.7401     7.5533    -0.3925 H       
  34 H34            5.8684     2.6323    -0.0524 H       
  35 H35            8.9954     6.0959    -0.6860 H       
  36 H36           10.6164    11.7873     0.0734 H       
  37 H37           12.6276    10.7084    -0.8421 H       
  38 H38           12.6011     8.3155    -1.4127 H       
  39 H39           10.5638     6.9846    -1.0628 H       
@<TRIPOS>BOND
   1    1    2 ar
   2    1    6 ar
   3    1   27 1
   4    2    3 ar
   5    2   28 1
   6    3    4 ar
   7    3   29 1
   8    4    5 ar
   9    4   30 1
  10    5    6 ar
  11    5    7 1
  12    7    8 am
  13    7    9 2
  14    8   10 1
  15    8   31 1
  16   10   11 ar
  17   10   15 ar
  18   11   12 ar
  19   11   32 1
  20   12   13 ar
  21   12   33 1
  22   13   14 ar
  23   13   16 1
  24   14   15 ar
  25   14   26 1
  26   15   34 1
  27   16   17 am
  28   16   35 1
  29   17   18 1
  30   17   19 2
  31   18   20 ar
  32   18   24 ar
  33   20   21 ar
  34   20   25 1
  35   21   22 ar
  36   21   36 1
  37   22   23 ar
  38   22   37 1
  39   23   24 ar
  40   23   38 1
  41   24   39 1

#	End of record

