#	Name: ASD07932227
#	Creating user name:	WinNT
#	Creation time:	15. 06. 2019 21:14

#	Modifying user name:	WinNT
#	Modification time:	15. 06. 2019 21:14

#	Program:	/corina/corina34_cracker 3.40 0067  02.08.2006

@<TRIPOS>MOLECULE
ASD07932227
  70   72    0    0    0
SMALL
NO_CHARGES


@<TRIPOS>ATOM
   1 Cl1            0.0000     0.0000     0.0000 Cl      
   2 H2             0.0000     1.3700     0.0000 H       
   3 Cl3            5.0000     6.3700     5.0000 Cl      
   4 H4             5.0000     7.7400     5.0000 H       
   5 C5            10.9496    19.7847    13.0849 C.ar    
   6 C6            10.9798    18.3919    13.0813 C.ar    
   7 C7            12.1600    17.7170    12.9993 C.ar    
   8 C8            13.3654    18.4313    12.9166 C.ar    
   9 C9            13.3407    19.8505    12.9193 C.ar    
  10 C10           12.0986    20.5130    13.0061 C.ar    
  11 C11           14.6039    17.7673    12.8312 C.ar    
  12 C12           15.7377    18.5229    12.7538 C.ar    
  13 C13           15.6448    19.9230    12.7611 C.ar    
  14 N14           14.4801    20.5363    12.8420 N.ar    
  15 C15           16.8845    20.7314    12.6769 C.2     
  16 N16           16.8131    22.0772    12.6827 N.am    
  17 O17           17.9651    20.1807    12.6028 O.2     
  18 C18           18.0383    22.8762    12.5996 C.3     
  19 C19           17.7951    24.2497    13.2282 C.3     
  20 C20           19.0747    25.0841    13.1413 C.3     
  21 C21           19.4716    25.2578    11.6740 C.3     
  22 C22           19.7148    23.8842    11.0454 C.3     
  23 C23           18.4353    23.0499    11.1322 C.3     
  24 O24           17.4244    24.0875    14.5987 O.3     
  25 C25           14.6757    16.2620    12.8257 C.3     
  26 N26           14.4667    15.7569    14.1892 N.3     
  27 C27           14.1643    14.3199    14.1775 C.3     
  28 C28           13.8105    13.8602    15.5936 C.3     
  29 C29           14.9904    14.1449    16.5271 C.3     
  30 C30           15.3159    15.6404    16.4840 C.3     
  31 C31           15.6260    16.0486    15.0420 C.3     
  32 C32           14.6256    13.7493    17.9348 C.ar    
  33 C33           15.6127    13.6185    18.8937 C.ar    
  34 C34           13.3034    13.5227    18.2685 C.ar    
  35 C35           12.9689    13.1599    19.5597 C.ar    
  36 C36           13.9565    13.0231    20.5172 C.ar    
  37 C37           15.2781    13.2556    20.1850 C.ar    
  38 F38           16.1056    13.4114    16.1082 F       
  39 F39           12.0482    21.8630    13.0106 F       
  40 H40           10.0000    20.2954    13.1467 H       
  41 H41           10.0541    17.8393    13.1449 H       
  42 H42           12.1684    16.6371    12.9983 H       
  43 H43           16.7038    18.0447    12.6875 H       
  44 H44           15.9505    22.5169    12.7420 H       
  45 H45           18.8403    22.3683    13.1353 H       
  46 H46           16.9931    24.7576    12.6925 H       
  47 H47           18.9014    26.0626    13.5891 H       
  48 H48           19.8767    24.5762    13.6770 H       
  49 H49           18.6696    25.7657    11.1383 H       
  50 H50           20.3832    25.8522    11.6121 H       
  51 H51           19.9976    24.0080    10.0000 H       
  52 H52           20.5168    23.3763    11.5811 H       
  53 H53           18.6085    22.0713    10.6844 H       
  54 H54           17.6333    23.5578    10.5965 H       
  55 H55           17.2544    24.9194    15.0613 H       
  56 H56           13.9030    15.8637    12.1682 H       
  57 H57           15.6556    15.9463    12.4676 H       
  58 H58           13.3209    14.1317    13.5132 H       
  59 H59           15.0353    13.7684    13.8236 H       
  60 H60           12.9312    14.4014    15.9429 H       
  61 H61           13.6013    12.7904    15.5873 H       
  62 H62           14.4603    16.2097    16.8473 H       
  63 H63           16.1822    15.8426    17.1138 H       
  64 H64           16.4902    15.4889    14.6840 H       
  65 H65           15.8443    17.1159    15.0056 H       
  66 H66           16.6452    13.7995    18.6340 H       
  67 H67           12.5318    13.6296    17.5205 H       
  68 H68           11.9358    12.9836    19.8206 H       
  69 H69           13.6951    12.7400    21.5261 H       
  70 H70           16.0498    13.1488    20.9330 H       
@<TRIPOS>BOND
   1    1    2 1
   2    3    4 1
   3    5    6 ar
   4    5   10 ar
   5    5   40 1
   6    6    7 ar
   7    6   41 1
   8    7    8 ar
   9    7   42 1
  10    8    9 ar
  11    8   11 ar
  12    9   10 ar
  13    9   14 ar
  14   10   39 1
  15   11   12 ar
  16   11   25 1
  17   12   13 ar
  18   12   43 1
  19   13   14 ar
  20   13   15 1
  21   15   16 am
  22   15   17 2
  23   16   18 1
  24   16   44 1
  25   18   19 1
  26   18   23 1
  27   18   45 1
  28   19   20 1
  29   19   24 1
  30   19   46 1
  31   20   21 1
  32   20   47 1
  33   20   48 1
  34   21   22 1
  35   21   49 1
  36   21   50 1
  37   22   23 1
  38   22   51 1
  39   22   52 1
  40   23   53 1
  41   23   54 1
  42   24   55 1
  43   25   26 1
  44   25   56 1
  45   25   57 1
  46   26   27 1
  47   26   31 1
  48   27   28 1
  49   27   58 1
  50   27   59 1
  51   28   29 1
  52   28   60 1
  53   28   61 1
  54   29   30 1
  55   29   32 1
  56   29   38 1
  57   30   31 1
  58   30   62 1
  59   30   63 1
  60   31   64 1
  61   31   65 1
  62   32   33 ar
  63   32   34 ar
  64   33   37 ar
  65   33   66 1
  66   34   35 ar
  67   34   67 1
  68   35   36 ar
  69   35   68 1
  70   36   37 ar
  71   36   69 1
  72   37   70 1

#	End of record

