#	Name: ASD02030335
#	Creating user name:	WinNT
#	Creation time:	15. 06. 2019 20:15

#	Modifying user name:	WinNT
#	Modification time:	15. 06. 2019 20:15

#	Program:	/corina/corina34_cracker 3.40 0067  02.08.2006

@<TRIPOS>MOLECULE
ASD02030335
  52   53    0    0    0
SMALL
NO_CHARGES


@<TRIPOS>ATOM
   1 N1             0.2301     1.3854     0.3025 N.am    
   2 C2             0.1666    -0.0744     0.1448 C.3     
   3 C3             0.8465    -0.4546    -1.1763 C.3     
   4 N4             2.1568     0.2081    -1.2380 N.am    
   5 C5             2.2203     1.6679    -1.0803 C.3     
   6 C6             1.5404     2.0482     0.2408 C.3     
   7 C7            -0.8937     2.1041     0.4945 C.2     
   8 O8            -1.9720     1.5456     0.5387 O.2     
   9 O9            -0.8217     3.4410     0.6375 O.3     
  10 C10            1.0349    -1.9717    -1.2388 C.3     
  11 C11           -0.0185     0.0076    -2.3506 C.3     
  12 C12            3.2801    -0.5101    -1.4351 C.2     
  13 O13            3.2358    -1.7243    -1.4178 O.2     
  14 C14            4.5689     0.1809    -1.6729 C.ar    
  15 C15            5.7538    -0.5488    -1.6659 C.ar    
  16 C16            6.9547     0.1087    -1.8902 C.ar    
  17 C17            6.9295     1.4740    -2.1140 C.ar    
  18 C18            5.7085     2.1434    -2.1076 C.ar    
  19 N19            4.5820     1.4902    -1.8963 N.ar    
  20 O20            5.6766     3.4820    -2.3259 O.3     
  21 C21            4.3941     4.1120    -2.3071 C.3     
  22 C22           -2.0721     4.1505     0.8411 C.3     
  23 C23           -2.7486     3.6368     2.1136 C.3     
  24 C24           -1.7917     5.6480     0.9815 C.3     
  25 C25           -2.9935     3.9142    -0.3573 C.3     
  26 H26            0.6851    -0.5548     0.9746 H       
  27 H27           -0.8749    -0.3953     0.1259 H       
  28 H28            3.2618     1.9888    -1.0614 H       
  29 H29            1.7018     2.1483    -1.9101 H       
  30 H30            1.4062     3.1290     0.2853 H       
  31 H31            2.1566     1.7188     1.0774 H       
  32 H32            0.0636    -2.4616    -1.1704 H       
  33 H33            1.5116    -2.2401    -2.1815 H       
  34 H34            1.6637    -2.2942    -0.4089 H       
  35 H35           -0.1436     1.0895    -2.3060 H       
  36 H36            0.4666    -0.2637    -3.2882 H       
  37 H37           -0.9949    -0.4736    -2.2942 H       
  38 H38            5.7388    -1.6139    -1.4876 H       
  39 H39            7.8889    -0.4331    -1.8898 H       
  40 H40            7.8474     2.0149    -2.2915 H       
  41 H41            4.5108     5.1793    -2.4948 H       
  42 H42            3.7628     3.6740    -3.0803 H       
  43 H43            3.9305     3.9631    -1.3319 H       
  44 H44           -2.0922     3.8051     2.9674 H       
  45 H45           -3.6873     4.1694     2.2665 H       
  46 H46           -2.9484     2.5699     2.0136 H       
  47 H47           -1.3097     6.0140     0.0749 H       
  48 H48           -2.7304     6.1806     1.1343 H       
  49 H49           -1.1353     5.8163     1.8353 H       
  50 H50           -3.1932     2.8474    -0.4573 H       
  51 H51           -3.9321     4.4469    -0.2045 H       
  52 H52           -2.5115     4.2802    -1.2639 H       
@<TRIPOS>BOND
   1    1    2 1
   2    1    6 1
   3    1    7 am
   4    2    3 1
   5    2   26 1
   6    2   27 1
   7    3    4 1
   8    3   10 1
   9    3   11 1
  10    4    5 1
  11    4   12 am
  12    5    6 1
  13    5   28 1
  14    5   29 1
  15    6   30 1
  16    6   31 1
  17    7    8 2
  18    7    9 1
  19    9   22 1
  20   10   32 1
  21   10   33 1
  22   10   34 1
  23   11   35 1
  24   11   36 1
  25   11   37 1
  26   12   13 2
  27   12   14 1
  28   14   15 ar
  29   14   19 ar
  30   15   16 ar
  31   15   38 1
  32   16   17 ar
  33   16   39 1
  34   17   18 ar
  35   17   40 1
  36   18   19 ar
  37   18   20 1
  38   20   21 1
  39   21   41 1
  40   21   42 1
  41   21   43 1
  42   22   23 1
  43   22   25 1
  44   22   24 1
  45   23   44 1
  46   23   45 1
  47   23   46 1
  48   24   47 1
  49   24   48 1
  50   24   49 1
  51   25   50 1
  52   25   51 1
  53   25   52 1

#	End of record

