#	Name: ASD07300154
#	Creating user name:	WinNT
#	Creation time:	15. 06. 2019 21:09

#	Modifying user name:	WinNT
#	Modification time:	15. 06. 2019 21:09

#	Program:	/corina/corina34_cracker 3.40 0067  02.08.2006

@<TRIPOS>MOLECULE
ASD07300154
  45   48    0    0    0
SMALL
NO_CHARGES


@<TRIPOS>ATOM
   1 C1            -0.0292     1.3865     0.1045 C.ar    
   2 C2            -0.0119    -0.0107     0.1586 C.ar    
   3 C3             1.2032    -0.6777     0.1136 C.ar    
   4 C4             2.3630     0.0774     0.0156 C.ar    
   5 C5             2.2717     1.4556    -0.0335 C.ar    
   6 N6             1.1026     2.0647     0.0118 N.ar    
   7 C7            -2.1232     0.6628     0.2638 C.2     
   8 N8            -1.3637     1.7703     0.1726 N.am    
   9 N9            -1.3357    -0.4296     0.2530 N.am    
  10 O10           -3.3375     0.6504     0.3401 O.2     
  11 C11           -1.8388     3.0901     0.1504 C.ar    
  12 C12           -3.2026     3.3384     0.2257 C.ar    
  13 C13           -3.6698     4.6376     0.2044 C.ar    
  14 C14           -2.7764     5.6948     0.1077 C.ar    
  15 C15           -1.4133     5.4470     0.0320 C.ar    
  16 C16           -0.9449     4.1484     0.0591 C.ar    
  17 O17           -3.2368     6.9738     0.0868 O.3     
  18 C18           -4.5752     7.1668     0.0018 C.2     
  19 N19           -5.4735     6.2314    -0.1858 N.2     
  20 C20           -6.6953     6.7890    -0.2165 C.2     
  21 C21           -6.5580     8.1150    -0.0427 C.2     
  22 N22           -5.2134     8.3625     0.1027 N.pl3   
  23 C23           -7.9963     6.0542    -0.4126 C.3     
  24 F24           -7.7537     4.6768    -0.4456 F       
  25 F25           -8.8629     6.3499     0.6451 F       
  26 F26           -8.5802     6.4539    -1.6195 F       
  27 C27           -4.5869     9.6685     0.3217 C.3     
  28 C28           -1.7931    -1.8189     0.3348 C.3     
  29 C29           -1.8677    -2.2457     1.8022 C.3     
  30 H30            1.2455    -1.7561     0.1540 H       
  31 H31            3.3276    -0.4070    -0.0216 H       
  32 H32            3.1739     2.0445    -0.1095 H       
  33 H33           -3.8981     2.5156     0.3006 H       
  34 H34           -4.7307     4.8309     0.2626 H       
  35 H35           -0.7182     6.2702    -0.0436 H       
  36 H36            0.1164     3.9558     0.0046 H       
  37 H37           -7.3528     8.8458    -0.0176 H       
  38 H38           -4.3479    10.1227    -0.6399 H       
  39 H39           -5.2744    10.3144     0.8678 H       
  40 H40           -3.6720     9.5402     0.9002 H       
  41 H41           -2.7805    -1.9036    -0.1189 H       
  42 H42           -1.0928    -2.4639    -0.1960 H       
  43 H43           -0.8803    -2.1610     2.2559 H       
  44 H44           -2.5680    -1.6008     2.3330 H       
  45 H45           -2.2081    -3.2795     1.8630 H       
@<TRIPOS>BOND
   1    1    2 ar
   2    1    6 ar
   3    1    8 1
   4    2    3 ar
   5    2    9 1
   6    3    4 ar
   7    3   30 1
   8    4    5 ar
   9    4   31 1
  10    5    6 ar
  11    5   32 1
  12    7    8 am
  13    7    9 am
  14    7   10 2
  15    8   11 1
  16    9   28 1
  17   11   12 ar
  18   11   16 ar
  19   12   13 ar
  20   12   33 1
  21   13   14 ar
  22   13   34 1
  23   14   15 ar
  24   14   17 1
  25   15   16 ar
  26   15   35 1
  27   16   36 1
  28   17   18 1
  29   18   19 2
  30   18   22 1
  31   19   20 1
  32   20   21 2
  33   20   23 1
  34   21   22 1
  35   21   37 1
  36   22   27 1
  37   23   24 1
  38   23   25 1
  39   23   26 1
  40   27   38 1
  41   27   39 1
  42   27   40 1
  43   28   29 1
  44   28   41 1
  45   28   42 1
  46   29   43 1
  47   29   44 1
  48   29   45 1

#	End of record

