#	Name: ASD01881331
#	Creating user name:	WinNT
#	Creation time:	15. 06. 2019 19:42

#	Modifying user name:	WinNT
#	Modification time:	15. 06. 2019 19:42

#	Program:	/corina/corina34_cracker 3.40 0067  02.08.2006

@<TRIPOS>MOLECULE
ASD01881331
  53   57    0    0    0
SMALL
NO_CHARGES


@<TRIPOS>ATOM
   1 C1            -0.1162     1.2767    -0.3049 C.2     
   2 C2            -0.0639    -0.1241    -0.2570 C.2     
   3 C3            -1.2710    -0.8540    -0.2588 C.2     
   4 C4            -2.4607    -0.2261    -0.3061 C.2     
   5 N5            -2.5576     1.1343    -0.3536 N.pl3   
   6 C6            -1.4321     1.9180    -0.3487 C.2     
   7 C7            -3.6322     1.9840    -0.4057 C.2     
   8 C8            -3.1442     3.2420    -0.4369 C.2     
   9 N9            -1.8088     3.1828    -0.4007 N.2     
  10 C10            1.2364    -0.8249    -0.2059 C.ar    
  11 C11            1.5878    -1.5692     0.9203 C.ar    
  12 C12            2.8025    -2.2254     0.9708 C.ar    
  13 C13            3.6756    -2.1510    -0.1049 C.ar    
  14 C14            3.3257    -1.4032    -1.2318 C.ar    
  15 C15            2.1174    -0.7499    -1.2877 C.ar    
  16 C16           -5.0860     1.5876    -0.4250 C.3     
  17 C17            3.1460    -3.0034     2.2160 C.3     
  18 C18            4.3067    -3.9573     1.9245 C.3     
  19 O19            5.3197    -3.2227     1.2255 O.3     
  20 N20            4.9027    -2.8091    -0.1114 N.3     
  21 C21            5.9370    -1.9882    -0.7551 C.3     
  22 C22            6.1620    -0.7131     0.0633 C.3     
  23 C23            7.2485    -2.7766    -0.8226 C.3     
  24 C24            8.3398    -1.8862    -1.4225 C.3     
  25 O25            8.4767    -0.7041    -0.6313 O.3     
  26 C26            7.2953     0.0976    -0.5709 C.3     
  27 C27            1.0837     2.0583    -0.3050 C.1     
  28 N28            2.0355     2.6784    -0.3051 N.1     
  29 C29           -5.5789     1.5271    -1.8721 C.3     
  30 F30           -4.8287     0.5830    -2.5813 F       
  31 F31           -6.9285     1.1591    -1.8900 F       
  32 F32           -5.4303     2.7840    -2.4683 F       
  33 H33           -1.2402    -1.9330    -0.2222 H       
  34 H34           -3.3652    -0.8163    -0.3067 H       
  35 H35           -3.7339     4.1457    -0.4801 H       
  36 H36            0.9074    -1.6325     1.7567 H       
  37 H37            4.0076    -1.3413    -2.0670 H       
  38 H38            1.8533    -0.1738    -2.1622 H       
  39 H39           -5.2017     0.6083     0.0395 H       
  40 H40           -5.6705     2.3232     0.1275 H       
  41 H41            3.4349    -2.3119     3.0076 H       
  42 H42            2.2765    -3.5775     2.5364 H       
  43 H43            4.7108    -4.3426     2.8606 H       
  44 H44            3.9576    -4.7837     1.3054 H       
  45 H45            5.6172    -1.7230    -1.7629 H       
  46 H46            5.2484    -0.1186     0.0700 H       
  47 H47            6.4321    -0.9791     1.0852 H       
  48 H48            7.5406    -3.0843     0.1815 H       
  49 H49            7.1120    -3.6579    -1.4493 H       
  50 H50            9.2857    -2.4278    -1.4335 H       
  51 H51            8.0660    -1.6120    -2.4413 H       
  52 H52            7.0077     0.3977    -1.5785 H       
  53 H53            7.4886     0.9851     0.0317 H       
@<TRIPOS>BOND
   1    1    2 2
   2    1   27 1
   3    1    6 1
   4    2    3 1
   5    2   10 1
   6    3    4 2
   7    3   33 1
   8    4    5 1
   9    4   34 1
  10    5    6 1
  11    5    7 1
  12    6    9 2
  13    7    8 2
  14    7   16 1
  15    8    9 1
  16    8   35 1
  17   10   11 ar
  18   10   15 ar
  19   11   12 ar
  20   11   36 1
  21   12   13 ar
  22   12   17 1
  23   13   14 ar
  24   13   20 1
  25   14   15 ar
  26   14   37 1
  27   15   38 1
  28   16   29 1
  29   16   39 1
  30   16   40 1
  31   17   18 1
  32   17   41 1
  33   17   42 1
  34   18   19 1
  35   18   43 1
  36   18   44 1
  37   19   20 1
  38   20   21 1
  39   21   22 1
  40   21   23 1
  41   21   45 1
  42   22   26 1
  43   22   46 1
  44   22   47 1
  45   23   24 1
  46   23   48 1
  47   23   49 1
  48   24   25 1
  49   24   50 1
  50   24   51 1
  51   25   26 1
  52   26   52 1
  53   26   53 1
  54   27   28 3
  55   29   30 1
  56   29   31 1
  57   29   32 1

#	End of record

