#	Name: ASD01883569
#	Creating user name:	WinNT
#	Creation time:	15. 06. 2019 19:46

#	Modifying user name:	WinNT
#	Modification time:	15. 06. 2019 19:46

#	Program:	/corina/corina34_cracker 3.40 0067  02.08.2006

@<TRIPOS>MOLECULE
ASD01883569
  42   45    0    0    0
SMALL
NO_CHARGES


@<TRIPOS>ATOM
   1 C1            -0.0116     1.3385     0.1026 C.ar    
   2 C2            -0.0580    -0.0554     0.0833 C.ar    
   3 C3             1.1132    -0.7829     0.1273 C.ar    
   4 C4             2.3344    -0.1312     0.1905 C.ar    
   5 C5             2.3858     1.2533     0.2099 C.ar    
   6 C6             1.2201     1.9898     0.1663 C.ar    
   7 C7            -1.2660     2.1246     0.0494 C.2     
   8 C8            -2.0709     2.0786    -1.0797 C.2     
   9 C9            -3.2538     2.8339    -1.1021 C.2     
  10 C10           -3.5988     3.6195     0.0158 C.2     
  11 N11           -2.8060     3.6534     1.1052 N.am    
  12 C12           -1.6526     2.9211     1.1504 C.2     
  13 C13           -3.1707     4.4250     2.1698 C.2     
  14 C14           -2.3958     4.4830     3.2829 C.2     
  15 C15           -1.2032     3.7437     3.3495 C.2     
  16 C16           -0.8403     2.9611     2.2921 C.2     
  17 O17           -2.7742     5.2578     4.3341 O.3     
  18 C18           -3.1105     4.6382     5.4938 C.ar    
  19 O19           -4.6261     4.2765    -0.0029 O.2     
  20 C20           -4.1253     2.8061    -2.2820 C.2     
  21 O21           -5.1972     3.3820    -2.2605 O.2     
  22 N22           -3.7388     2.1427    -3.3897 N.am    
  23 C23           -3.3979     5.3754     6.6402 C.ar    
  24 C24           -3.7362     4.7081     7.7995 C.ar    
  25 N25           -3.7886     3.3899     7.8302 N.ar    
  26 C26           -3.5233     2.6570     6.7653 C.ar    
  27 C27           -3.1828     3.2490     5.5666 C.ar    
  28 F28            3.4787    -0.8481     0.2339 F       
  29 H29           -1.0094    -0.5643     0.0344 H       
  30 H30            1.0783    -1.8623     0.1128 H       
  31 H31            3.3400     1.7566     0.2596 H       
  32 H32            1.2613     3.0689     0.1810 H       
  33 H33           -1.7916     1.4714    -1.9281 H       
  34 H34           -4.0862     4.9963     2.1263 H       
  35 H35           -0.5839     3.7872     4.2332 H       
  36 H36            0.0737     2.3869     2.3293 H       
  37 H37           -2.9190     1.6242    -3.3832 H       
  38 H38           -4.2803     2.1838    -4.1934 H       
  39 H39           -3.3562     6.4544     6.6220 H       
  40 H40           -3.9606     5.2717     8.6930 H       
  41 H41           -3.5774     1.5804     6.8320 H       
  42 H42           -2.9668     2.6435     4.6988 H       
@<TRIPOS>BOND
   1    1    2 ar
   2    1    6 ar
   3    1    7 1
   4    2    3 ar
   5    2   29 1
   6    3    4 ar
   7    3   30 1
   8    4    5 ar
   9    4   28 1
  10    5    6 ar
  11    5   31 1
  12    6   32 1
  13    7    8 1
  14    7   12 2
  15    8    9 2
  16    8   33 1
  17    9   10 1
  18    9   20 1
  19   10   11 am
  20   10   19 2
  21   11   12 1
  22   11   13 1
  23   12   16 1
  24   13   14 2
  25   13   34 1
  26   14   15 1
  27   14   17 1
  28   15   16 2
  29   15   35 1
  30   16   36 1
  31   17   18 1
  32   18   23 ar
  33   18   27 ar
  34   20   21 2
  35   20   22 am
  36   22   37 1
  37   22   38 1
  38   23   24 ar
  39   23   39 1
  40   24   25 ar
  41   24   40 1
  42   25   26 ar
  43   26   27 ar
  44   26   41 1
  45   27   42 1

#	End of record

