#	Name: ASD07300406
#	Creating user name:	WinNT
#	Creation time:	15. 06. 2019 21:09

#	Modifying user name:	WinNT
#	Modification time:	15. 06. 2019 21:09

#	Program:	/corina/corina34_cracker 3.40 0067  02.08.2006

@<TRIPOS>MOLECULE
ASD07300406
  47   51    0    0    0
SMALL
NO_CHARGES


@<TRIPOS>ATOM
   1 C1            -0.8588     0.9899    -0.1284 C.ar    
   2 C2            -1.0217    -0.3808    -0.3513 C.ar    
   3 C3             0.0639    -1.2291    -0.1921 C.ar    
   4 C4             1.2789    -0.6761     0.1858 C.ar    
   5 C5             1.3680     0.6880     0.3894 C.ar    
   6 N6             0.3192     1.4722     0.2313 N.ar    
   7 C7            -2.9727     0.6165    -0.6991 C.2     
   8 N8            -2.0974     1.5794    -0.3550 N.am    
   9 N9            -2.3515    -0.5784    -0.7108 N.am    
  10 O10           -4.1462     0.7986    -0.9641 O.2     
  11 C11           -2.3864     2.9474    -0.2433 C.ar    
  12 C12           -3.6707     3.4089    -0.4984 C.ar    
  13 C13           -3.9547     4.7557    -0.3884 C.ar    
  14 C14           -2.9568     5.6477    -0.0230 C.ar    
  15 C15           -1.6732     5.1870     0.2319 C.ar    
  16 C16           -1.3896     3.8397     0.1278 C.ar    
  17 O17           -3.2368     6.9738     0.0847 O.3     
  18 C18           -4.9106     7.3723     3.1168 C.ar    
  19 C19           -4.9932     8.6825     2.6117 C.ar    
  20 C20           -5.6307     9.6622     3.3580 C.ar    
  21 C21           -6.1669     9.3061     4.5855 C.ar    
  22 C22           -6.0515     7.9984     5.0254 C.ar    
  23 N23           -5.4423     7.0827     4.3020 N.ar    
  24 C24           -3.9127     7.3930     1.1781 C.2     
  25 N25           -4.2403     6.6365     2.1949 N.2     
  26 N26           -4.3584     8.6651     1.3826 N.pl3   
  27 C27           -4.1894     9.8024     0.4747 C.3     
  28 C28           -2.9708    -1.8652    -1.0377 C.3     
  29 C29           -3.5340    -2.4984     0.2362 C.3     
  30 H30           -0.0340    -2.2919    -0.3574 H       
  31 H31            2.1464    -1.3054     0.3199 H       
  32 H32            2.3132     1.1196     0.6840 H       
  33 H33           -4.4475     2.7147    -0.7831 H       
  34 H34           -4.9536     5.1148    -0.5871 H       
  35 H35           -0.8967     5.8818     0.5163 H       
  36 H36           -0.3914     3.4806     0.3306 H       
  37 H37           -5.7072    10.6757     2.9926 H       
  38 H38           -6.6702    10.0427     5.1941 H       
  39 H39           -6.4699     7.7239     5.9824 H       
  40 H40           -3.2567    10.3167     0.7063 H       
  41 H41           -4.1612     9.4446    -0.5545 H       
  42 H42           -5.0246    10.4920     0.5969 H       
  43 H43           -3.7781    -1.7085    -1.7531 H       
  44 H44           -2.2231    -2.5281    -1.4730 H       
  45 H45           -2.7267    -2.6550     0.9516 H       
  46 H46           -4.2817    -1.8355     0.6716 H       
  47 H47           -3.9947    -3.4558    -0.0070 H       
@<TRIPOS>BOND
   1    1    2 ar
   2    1    6 ar
   3    1    8 1
   4    2    3 ar
   5    2    9 1
   6    3    4 ar
   7    3   30 1
   8    4    5 ar
   9    4   31 1
  10    5    6 ar
  11    5   32 1
  12    7    8 am
  13    7    9 am
  14    7   10 2
  15    8   11 1
  16    9   28 1
  17   11   12 ar
  18   11   16 ar
  19   12   13 ar
  20   12   33 1
  21   13   14 ar
  22   13   34 1
  23   14   15 ar
  24   14   17 1
  25   15   16 ar
  26   15   35 1
  27   16   36 1
  28   17   24 1
  29   18   19 ar
  30   18   23 ar
  31   18   25 1
  32   19   20 ar
  33   19   26 1
  34   20   21 ar
  35   20   37 1
  36   21   22 ar
  37   21   38 1
  38   22   23 ar
  39   22   39 1
  40   24   25 2
  41   24   26 1
  42   26   27 1
  43   27   40 1
  44   27   41 1
  45   27   42 1
  46   28   29 1
  47   28   43 1
  48   28   44 1
  49   29   45 1
  50   29   46 1
  51   29   47 1

#	End of record

