#	Name: ASD03091778
#	Creating user name:	WinNT
#	Creation time:	15. 06. 2019 20:31

#	Modifying user name:	WinNT
#	Modification time:	15. 06. 2019 20:31

#	Program:	/corina/corina34_cracker 3.40 0067  02.08.2006

@<TRIPOS>MOLECULE
ASD03091778
  32   34    0    0    0
SMALL
NO_CHARGES


@<TRIPOS>ATOM
   1 C1            -0.0110     1.4661    -0.0346 C.3     
   2 C2             0.0623    -0.0606    -0.1053 C.3     
   3 N3             0.7601    -0.5740     1.0805 N.3     
   4 C4             0.0357    -0.2324     2.3113 C.3     
   5 C5            -0.0390     1.2890     2.4560 C.3     
   6 C6             1.3806     1.8616     2.5289 C.3     
   7 N7             2.0587     1.6068     1.2506 N.am    
   8 C8             1.4091     2.0405     0.0062 C.3     
   9 C9             3.2546     0.9861     1.2201 C.2     
  10 O10            3.7520     0.6756     0.1536 O.2     
  11 C11            3.9561     0.6851     2.4711 C.2     
  12 C12            5.0961    -0.0576     2.5932 C.2     
  13 C13           -0.7562     1.8793     1.2382 C.3     
  14 O14            3.5920     1.0981     3.7033 O.3     
  15 C15            4.4672     0.6326     4.6048 C.2     
  16 C16            5.4141    -0.0880     3.9596 C.2     
  17 Br17           4.3941     0.9362     6.4699 Br      
  18 Br18           6.8884    -0.9692     4.7506 Br      
  19 H19           -0.5343     1.8476    -0.9114 H       
  20 H20           -0.9468    -0.4715    -0.1391 H       
  21 H21            0.6051    -0.3570    -1.0028 H       
  22 H22            0.9059    -1.5700     1.0113 H       
  23 H23           -0.9730    -0.6426     2.2647 H       
  24 H24            0.5594    -0.6534     3.1696 H       
  25 H25           -0.5825     1.5431     3.3659 H       
  26 H26            1.3328     2.9354     2.7096 H       
  27 H27            1.9292     1.3769     3.3366 H       
  28 H28            1.9764     1.6736    -0.8492 H       
  29 H29            1.3639     3.1292    -0.0223 H       
  30 H30            5.6460    -0.5304     1.7929 H       
  31 H31           -0.7701     2.9665     1.3153 H       
  32 H32           -1.7785     1.5031     1.1999 H       
@<TRIPOS>BOND
   1    1    2 1
   2    1    8 1
   3    1   13 1
   4    1   19 1
   5    2    3 1
   6    2   20 1
   7    2   21 1
   8    3    4 1
   9    3   22 1
  10    4    5 1
  11    4   23 1
  12    4   24 1
  13    5    6 1
  14    5   13 1
  15    5   25 1
  16    6    7 1
  17    6   26 1
  18    6   27 1
  19    7    8 1
  20    7    9 am
  21    8   28 1
  22    8   29 1
  23    9   10 2
  24    9   11 1
  25   11   12 2
  26   11   14 1
  27   12   16 1
  28   12   30 1
  29   13   31 1
  30   13   32 1
  31   14   15 1
  32   15   16 2
  33   15   17 1
  34   16   18 1

#	End of record

