#	Name: ASD04560201
#	Creating user name:	WinNT
#	Creation time:	15. 06. 2019 20:49

#	Modifying user name:	WinNT
#	Modification time:	15. 06. 2019 20:49

#	Program:	/corina/corina34_cracker 3.40 0067  02.08.2006

@<TRIPOS>MOLECULE
ASD04560201
  43   45    0    0    0
SMALL
NO_CHARGES


@<TRIPOS>ATOM
   1 C1            -0.0374     1.5537     0.9805 C.ar    
   2 C2            -0.0296     0.1953     1.2326 C.ar    
   3 C3             1.1791    -0.4907     1.2955 C.ar    
   4 C4             2.3666     0.1704     1.1091 C.ar    
   5 C5             1.1610     2.2367     0.7896 C.ar    
   6 S6             1.4866     3.9359     0.4558 S.3     
   7 C7             2.3814     1.5572     0.8511 C.ar    
   8 N8             3.4418     2.3654     0.6454 N.2     
   9 C9             3.2144     3.6129     0.4234 C.2     
  10 N10            4.1930     4.5664     0.1934 N.am    
  11 C11            5.4930     4.2106     0.1900 C.2     
  12 N12            6.4449     5.1381    -0.0338 N.am    
  13 O13            5.8069     3.0531     0.3887 O.2     
  14 C14            7.7970     4.7891     0.0570 C.ar    
  15 C15            8.7167     5.6949     0.5689 C.ar    
  16 C16            8.2210     3.5340    -0.3595 C.ar    
  17 C17            9.5562     3.1925    -0.2687 C.ar    
  18 C18           10.4704     4.0989     0.2362 C.ar    
  19 C19           10.0504     5.3474     0.6571 C.ar    
  20 O20           -1.2009    -0.4697     1.4192 O.3     
  21 C21           -1.1165    -1.8730     1.6755 C.3     
  22 C22           11.0492     6.3300     1.2120 C.3     
  23 F23           10.3920     7.5130     1.5666 F       
  24 F24           11.6644     5.7814     2.3425 F       
  25 F25           12.0185     6.6077     0.2422 F       
  26 C26           -2.5243    -2.4438     1.8574 C.3     
  27 C27           10.0172     1.8306    -0.7199 C.3     
  28 F28            8.9206     1.0983    -1.1873 F       
  29 F29           10.9554     1.9727    -1.7479 F       
  30 F30           10.6035     1.1563     0.3566 F       
  31 H31           -0.9754     2.0863     0.9270 H       
  32 H32            1.1825    -1.5525     1.4930 H       
  33 H33            3.2973    -0.3750     1.1608 H       
  34 H34            3.9426     5.4900     0.0348 H       
  35 H35            6.1928     6.0476    -0.2576 H       
  36 H36            8.3893     6.6703     0.8974 H       
  37 H37            7.5075     2.8255    -0.7536 H       
  38 H38           11.5138     3.8293     0.3066 H       
  39 H39           -0.6299    -2.3673     0.8347 H       
  40 H40           -0.5358    -2.0425     2.5822 H       
  41 H41           -3.1050    -2.2743     0.9506 H       
  42 H42           -2.4600    -3.5142     2.0528 H       
  43 H43           -3.0110    -1.9495     2.6982 H       
@<TRIPOS>BOND
   1    1    2 ar
   2    1    5 ar
   3    1   31 1
   4    2    3 ar
   5    2   20 1
   6    3    4 ar
   7    3   32 1
   8    4    7 ar
   9    4   33 1
  10    5    7 ar
  11    5    6 1
  12    6    9 1
  13    7    8 1
  14    8    9 2
  15    9   10 1
  16   10   11 am
  17   10   34 1
  18   11   12 am
  19   11   13 2
  20   12   14 1
  21   12   35 1
  22   14   16 ar
  23   14   15 ar
  24   15   19 ar
  25   15   36 1
  26   16   17 ar
  27   16   37 1
  28   17   18 ar
  29   17   27 1
  30   18   19 ar
  31   18   38 1
  32   19   22 1
  33   20   21 1
  34   21   26 1
  35   21   39 1
  36   21   40 1
  37   22   23 1
  38   22   24 1
  39   22   25 1
  40   26   41 1
  41   26   42 1
  42   26   43 1
  43   27   28 1
  44   27   29 1
  45   27   30 1

#	End of record

