#	Name: ASD01918138
#	Creating user name:	WinNT
#	Creation time:	15. 06. 2019 20:10

#	Modifying user name:	WinNT
#	Modification time:	15. 06. 2019 20:10

#	Program:	/corina/corina34_cracker 3.40 0067  02.08.2006

@<TRIPOS>MOLECULE
ASD01918138
  37   40    0    0    0
SMALL
NO_CHARGES


@<TRIPOS>ATOM
   1 N1             4.8258    -0.4009    -2.1627 N.ar    
   2 C2             5.2922     0.3000    -3.1789 C.ar    
   3 C3             5.1775     1.6830    -3.2004 C.ar    
   4 C4             4.5639     2.3263    -2.1369 C.ar    
   5 C5             4.0845     1.5532    -1.0834 C.ar    
   6 C6             4.2360     0.1762    -1.1333 C.ar    
   7 O7             3.4762     2.1408    -0.0192 O.3     
   8 C8             3.4551     3.4997     0.0341 C.2     
   9 N9             2.2017     5.5109    -0.0260 N.pl3   
  10 C10            2.2714     4.1553    -0.0731 C.2     
  11 C11            4.6539     4.2024     0.2044 C.2     
  12 C12            4.6242     5.5916     0.2578 C.2     
  13 C13            3.3308     6.2632     0.1327 C.2     
  14 C14            5.8633     6.3669     0.4364 C.2     
  15 N15            5.8148     7.7129     0.4859 N.am    
  16 O16            6.9306     5.7926     0.5392 O.2     
  17 N17            1.1376     6.4208    -0.1094 N.2     
  18 C18            1.6506     7.6240    -0.0086 C.2     
  19 N19            2.9660     7.5355     0.1426 N.2     
  20 C20            6.9834     8.4441     0.6542 C.2     
  21 F21            5.8890    -0.3363    -4.2105 F       
  22 F22            5.6581     2.3933    -4.2443 F       
  23 S23            8.5466     7.7697     0.8110 S.3     
  24 C24            9.2393     9.3828     0.9590 C.2     
  25 C25            8.2450    10.2691     0.8780 C.2     
  26 N26            7.0485     9.7378     0.7098 N.2     
  27 C27            8.4706    11.7565     0.9665 C.3     
  28 H28            4.4606     3.4013    -2.1257 H       
  29 H29            3.8670    -0.4312    -0.3202 H       
  30 H30            1.3629     3.5851    -0.1993 H       
  31 H31            5.5905     3.6720     0.2935 H       
  32 H32            4.9637     8.1709     0.4039 H       
  33 H33            1.0877     8.5453    -0.0365 H       
  34 H34           10.2858     9.6139     1.0923 H       
  35 H35            8.6458    12.1574    -0.0318 H       
  36 H36            7.5909    12.2322     1.3999 H       
  37 H37            9.3383    11.9556     1.5955 H       
@<TRIPOS>BOND
   1    1    2 ar
   2    1    6 ar
   3    2    3 ar
   4    2   21 1
   5    3    4 ar
   6    3   22 1
   7    4    5 ar
   8    4   28 1
   9    5    6 ar
  10    5    7 1
  11    6   29 1
  12    7    8 1
  13    8   11 1
  14    8   10 2
  15    9   10 1
  16    9   17 1
  17    9   13 1
  18   10   30 1
  19   11   12 2
  20   11   31 1
  21   12   13 1
  22   12   14 1
  23   13   19 2
  24   14   15 am
  25   14   16 2
  26   15   20 1
  27   15   32 1
  28   17   18 2
  29   18   19 1
  30   18   33 1
  31   20   23 1
  32   20   26 2
  33   23   24 1
  34   24   25 2
  35   24   34 1
  36   25   26 1
  37   25   27 1
  38   27   35 1
  39   27   36 1
  40   27   37 1

#	End of record

