#	Name: ASD01881809
#	Creating user name:	WinNT
#	Creation time:	15. 06. 2019 19:43

#	Modifying user name:	WinNT
#	Modification time:	15. 06. 2019 19:43

#	Program:	/corina/corina34_cracker 3.40 0067  02.08.2006

@<TRIPOS>MOLECULE
ASD01881809
  66   71    0    0    0
SMALL
NO_CHARGES


@<TRIPOS>ATOM
   1 C1            -0.0161     1.3337     0.0094 C.2     
   2 N2             0.0021    -0.0041     0.0020 N.am    
   3 C3             1.2613    -0.4841    -0.0126 C.2     
   4 C4             2.1640     0.7337    -0.0147 C.3     
   5 N5             1.2200     1.8645     0.0004 N.am    
   6 O6            -1.0354     1.9955     0.0180 O.2     
   7 O7             1.6013    -1.6477    -0.0215 O.2     
   8 C8            -1.1986    -0.8435     0.0097 C.3     
   9 O9            -3.3161    -1.1584    -2.6328 O.3     
  10 C10           -2.8842    -2.0030    -1.5581 C.3     
  11 C11           -1.6309    -1.1284    -1.4300 C.3     
  12 C12           -2.5828    -0.0853    -2.0283 C.3     
  13 C13           -0.4748    -1.5355    -2.3458 C.3     
  14 C14            3.0460     0.7520     1.2354 C.3     
  15 C15            3.0220     0.7655    -1.2811 C.3     
  16 C16            1.5609     3.2893     0.0041 C.3     
  17 C17            1.6916     3.7708     1.4261 C.ar    
  18 C18            2.9179     3.7119     2.0635 C.ar    
  19 C19            3.0436     4.1515     3.3656 C.ar    
  20 C20            1.9317     4.6556     4.0386 C.ar    
  21 C21            0.6985     4.7125     3.3911 C.ar    
  22 C22            0.5860     4.2753     2.0870 C.ar    
  23 C23            2.1296     6.5463     9.4228 C.2     
  24 N24            0.8532     6.9185     9.6195 N.am    
  25 C25            0.0906     6.6569     8.3935 C.3     
  26 C26            1.0684     6.0704     7.4058 C.ar    
  27 C27            0.9454     5.6335     6.1100 C.ar    
  28 C28            2.0602     5.1290     5.4378 C.ar    
  29 C29            3.2953     5.0703     6.0844 C.ar    
  30 C30            3.4183     5.5084     7.3833 C.ar    
  31 C31            2.3036     6.0140     8.0586 C.ar    
  32 O32            3.0156     6.6401    10.2499 O.2     
  33 C33            0.3121     7.4904    10.8550 C.3     
  34 C34            0.4099     6.6453    12.1266 C.3     
  35 C35            1.3079     7.8717    11.9522 C.3     
  36 H36           -0.9814    -1.7836     0.5167 H       
  37 H37           -2.0011    -0.3248     0.5342 H       
  38 H38           -3.5343    -1.9582    -0.6844 H       
  39 H39           -2.6688    -3.0248    -1.8705 H       
  40 H40           -2.1032     0.5731    -2.7525 H       
  41 H41           -3.1542     0.4602    -1.2773 H       
  42 H42           -0.0076    -2.4417    -1.9603 H       
  43 H43           -0.8552    -1.7218    -3.3502 H       
  44 H44            0.2619    -0.7329    -2.3795 H       
  45 H45            3.6824    -0.1329     1.2441 H       
  46 H46            3.6682     1.6470     1.2280 H       
  47 H47            2.4158     0.7550     2.1247 H       
  48 H48            2.3749     0.7780    -2.1581 H       
  49 H49            3.6443     1.6604    -1.2759 H       
  50 H50            3.6580    -0.1191    -1.3114 H       
  51 H51            2.5060     3.4381    -0.5182 H       
  52 H52            0.7749     3.8522    -0.4994 H       
  53 H53            3.7786     3.3209     1.5412 H       
  54 H54            4.0014     4.1047     3.8624 H       
  55 H55           -0.1663     5.1021     3.9076 H       
  56 H56           -0.3679     4.3233     1.5828 H       
  57 H57           -0.7104     5.9457     8.5952 H       
  58 H58           -0.3229     7.5872     8.0040 H       
  59 H59           -0.0116     5.6802     5.6117 H       
  60 H60            4.1573     4.6796     5.5640 H       
  61 H61            4.3757     5.4612     7.8808 H       
  62 H62           -0.5703     8.1189    10.7350 H       
  63 H63           -0.4079     6.7182    12.8435 H       
  64 H64            0.8769     5.6638    12.0440 H       
  65 H65            2.3656     7.6971    11.7548 H       
  66 H66            1.0808     8.7515    12.5543 H       
@<TRIPOS>BOND
   1    1    2 am
   2    1    5 am
   3    1    6 2
   4    2    3 am
   5    2    8 1
   6    3    4 1
   7    3    7 2
   8    4    5 1
   9    4   14 1
  10    4   15 1
  11    5   16 1
  12    8   11 1
  13    8   36 1
  14    8   37 1
  15    9   10 1
  16    9   12 1
  17   10   11 1
  18   10   38 1
  19   10   39 1
  20   11   12 1
  21   11   13 1
  22   12   40 1
  23   12   41 1
  24   13   42 1
  25   13   43 1
  26   13   44 1
  27   14   45 1
  28   14   46 1
  29   14   47 1
  30   15   48 1
  31   15   49 1
  32   15   50 1
  33   16   17 1
  34   16   51 1
  35   16   52 1
  36   17   18 ar
  37   17   22 ar
  38   18   19 ar
  39   18   53 1
  40   19   20 ar
  41   19   54 1
  42   20   21 ar
  43   20   28 1
  44   21   22 ar
  45   21   55 1
  46   22   56 1
  47   23   24 am
  48   23   31 1
  49   23   32 2
  50   24   25 1
  51   24   33 1
  52   25   26 1
  53   25   57 1
  54   25   58 1
  55   26   27 ar
  56   26   31 ar
  57   27   28 ar
  58   27   59 1
  59   28   29 ar
  60   29   30 ar
  61   29   60 1
  62   30   31 ar
  63   30   61 1
  64   33   34 1
  65   33   35 1
  66   33   62 1
  67   34   35 1
  68   34   63 1
  69   34   64 1
  70   35   65 1
  71   35   66 1

#	End of record

