#	Name: ASD00843465
#	Creating user name:	WinNT
#	Creation time:	15. 06. 2019 18:46

#	Modifying user name:	WinNT
#	Modification time:	15. 06. 2019 18:46

#	Program:	/corina/corina34_cracker 3.40 0067  02.08.2006

@<TRIPOS>MOLECULE
ASD00843465
  95  100    0    0    0
SMALL
NO_CHARGES


@<TRIPOS>ATOM
   1 F1             5.6101    -2.3597    -2.1912 F       
   2 N2             0.7513     1.1449    -0.6340 N.ar    
   3 C3             0.9599    -0.1452    -0.8366 C.ar    
   4 C4             0.8545    -1.0523     0.2103 C.ar    
   5 C5             0.5275    -0.5886     1.4724 C.ar    
   6 C6             0.3165     0.7728     1.6435 C.ar    
   7 C7             0.4382     1.6168     0.5579 C.ar    
   8 C8             1.0926    -2.5216    -0.0255 C.3     
   9 C9             0.7876    -3.3158     1.2267 C.2     
  10 C10            0.2431    -3.0197    -1.1964 C.3     
  11 C11           -1.2039    -2.6797    -0.9476 C.2     
  12 N12           -2.1505    -3.0855    -1.8169 N.am    
  13 O13           -1.5164    -2.0409     0.0348 O.2     
  14 C14           -3.5481    -2.6630    -1.6527 C.3     
  15 C15           -4.4409    -3.9078    -1.6375 C.3     
  16 C16           -4.1782    -4.7346    -2.8982 C.3     
  17 C17           -2.7168    -5.1886    -2.9172 C.3     
  18 C18           -1.8035    -3.9537    -2.9502 C.3     
  19 C19           -5.0930    -5.9610    -2.9034 C.3     
  20 C20           -6.5557    -5.5083    -2.8861 C.3     
  21 C21           -7.4656    -6.7370    -2.9528 C.3     
  22 N22           -7.1824    -7.4913    -4.1805 N.3     
  23 C23           -5.7966    -7.9767    -4.1977 C.3     
  24 C24           -4.8369    -6.7851    -4.1682 C.3     
  25 C25           -8.1309    -8.6005    -4.3475 C.3     
  26 O26           -0.2842    -3.3897     1.7897 O.2     
  27 N27            1.9270    -3.9243     1.5968 N.am    
  28 C28            2.5586    -2.7861    -0.2810 C.ar    
  29 C29            2.9854    -3.6342     0.7332 C.ar    
  30 C30            3.4299    -2.3591    -1.2575 C.ar    
  31 C31            4.7513    -2.7765    -1.2352 C.ar    
  32 C32            5.1886    -3.6224    -0.2286 C.ar    
  33 C33            4.3146    -4.0506     0.7508 C.ar    
  34 Cl34           6.8434    -4.1464    -0.1988 Cl      
  35 C35            1.6982    -6.5469     2.3994 C.ar    
  36 C36            0.4265    -6.8641     1.9443 C.ar    
  37 C37            2.6823    -7.5165     2.4356 C.ar    
  38 C38            2.4027    -8.8036     2.0186 C.ar    
  39 C39            1.1321    -9.1259     1.5625 C.ar    
  40 C40            0.1432    -8.1553     1.5256 C.ar    
  41 O41            0.8575   -10.3923     1.1529 O.3     
  42 O42           -0.5409    -5.9103     1.9093 O.3     
  43 C43            1.9241   -11.3410     1.2187 C.3     
  44 C44           -1.8268    -6.3077     1.4292 C.3     
  45 C45           -2.7768    -5.1088     1.4631 C.3     
  46 O46            1.2794    -0.5872    -2.0789 O.3     
  47 C47            1.2825     0.3801    -3.1308 C.3     
  48 C48            1.7653    -0.2762    -4.4258 C.3     
  49 F49            3.0244    -0.8491    -4.2170 F       
  50 F50            0.8589    -1.2698    -4.8111 F       
  51 S51            2.0610    -4.9046     2.9247 S.o2    
  52 O52            3.4332    -4.8951     3.2936 O.2     
  53 O53            1.0156    -4.5263     3.8098 O.2     
  54 H54            0.4382    -1.2704     2.3053 H       
  55 H55            0.0595     1.1673     2.6155 H       
  56 H56            0.2754     2.6768     0.6858 H       
  57 H57            0.5760    -2.5399    -2.1168 H       
  58 H58            0.3514    -4.1002    -1.2901 H       
  59 H59           -3.6585    -2.1227    -0.7125 H       
  60 H60           -3.8348    -2.0179    -2.4832 H       
  61 H61           -4.2145    -4.5071    -0.7556 H       
  62 H62           -5.4876    -3.6045    -1.6129 H       
  63 H63           -4.3811    -4.1267    -3.7799 H       
  64 H64           -2.5066    -5.7758    -2.0234 H       
  65 H65           -2.5363    -5.7969    -3.8035 H       
  66 H66           -1.9492    -3.4163    -3.8872 H       
  67 H67           -0.7629    -4.2665    -2.8640 H       
  68 H68           -4.8899    -6.5706    -2.0229 H       
  69 H69           -6.7552    -4.9572    -1.9671 H       
  70 H70           -6.7480    -4.8660    -3.7454 H       
  71 H71           -7.2825    -7.3720    -2.0860 H       
  72 H72           -8.5077    -6.4175    -2.9551 H       
  73 H73           -5.6214    -8.6060    -3.3251 H       
  74 H74           -5.6266    -8.5576    -5.1042 H       
  75 H75           -5.0022    -6.1628    -5.0477 H       
  76 H76           -3.8084    -7.1462    -4.1652 H       
  77 H77           -9.1452    -8.2056    -4.4060 H       
  78 H78           -7.8986    -9.1424    -5.2642 H       
  79 H79           -8.0529    -9.2766    -3.4960 H       
  80 H80            3.0842    -1.7001    -2.0402 H       
  81 H81            4.6623    -4.7099     1.5323 H       
  82 H82            3.6716    -7.2676     2.7901 H       
  83 H83            3.1736    -9.5595     2.0471 H       
  84 H84           -0.8462    -8.4042     1.1714 H       
  85 H85            1.5715   -12.3094     0.8636 H       
  86 H86            2.7500   -11.0032     0.5927 H       
  87 H87            2.2644   -11.4341     2.2500 H       
  88 H88           -1.7362    -6.6706     0.4054 H       
  89 H89           -2.2215    -7.1021     2.0626 H       
  90 H90           -3.7576    -5.4120     1.0969 H       
  91 H91           -2.8674    -4.7460     2.4869 H       
  92 H92           -2.3820    -4.3144     0.8297 H       
  93 H93            0.2728     0.7652    -3.2732 H       
  94 H94            1.9506     1.2003    -2.8682 H       
  95 H95            1.8344     0.4768    -5.2109 H       
@<TRIPOS>BOND
   1    1   31 1
   2    2    3 ar
   3    2    7 ar
   4    3    4 ar
   5    3   46 1
   6    4    5 ar
   7    4    8 1
   8    5    6 ar
   9    5   54 1
  10    6    7 ar
  11    6   55 1
  12    7   56 1
  13    8    9 1
  14    8   10 1
  15    8   28 1
  16    9   26 2
  17    9   27 am
  18   10   11 1
  19   10   57 1
  20   10   58 1
  21   11   12 am
  22   11   13 2
  23   12   14 1
  24   12   18 1
  25   14   15 1
  26   14   59 1
  27   14   60 1
  28   15   16 1
  29   15   61 1
  30   15   62 1
  31   16   17 1
  32   16   19 1
  33   16   63 1
  34   17   18 1
  35   17   64 1
  36   17   65 1
  37   18   66 1
  38   18   67 1
  39   19   20 1
  40   19   24 1
  41   19   68 1
  42   20   21 1
  43   20   69 1
  44   20   70 1
  45   21   22 1
  46   21   71 1
  47   21   72 1
  48   22   23 1
  49   22   25 1
  50   23   24 1
  51   23   73 1
  52   23   74 1
  53   24   75 1
  54   24   76 1
  55   25   77 1
  56   25   78 1
  57   25   79 1
  58   27   51 am
  59   27   29 1
  60   28   29 ar
  61   28   30 ar
  62   29   33 ar
  63   30   31 ar
  64   30   80 1
  65   31   32 ar
  66   32   33 ar
  67   32   34 1
  68   33   81 1
  69   35   36 ar
  70   35   37 ar
  71   35   51 1
  72   36   42 1
  73   36   40 ar
  74   37   38 ar
  75   37   82 1
  76   38   39 ar
  77   38   83 1
  78   39   40 ar
  79   39   41 1
  80   40   84 1
  81   41   43 1
  82   42   44 1
  83   43   85 1
  84   43   86 1
  85   43   87 1
  86   44   45 1
  87   44   88 1
  88   44   89 1
  89   45   90 1
  90   45   91 1
  91   45   92 1
  92   46   47 1
  93   47   48 1
  94   47   93 1
  95   47   94 1
  96   48   49 1
  97   48   50 1
  98   48   95 1
  99   51   52 2
 100   51   53 2

#	End of record

