#	Name: ASD01200384
#	Creating user name:	WinNT
#	Creation time:	15. 06. 2019 19:09

#	Modifying user name:	WinNT
#	Modification time:	15. 06. 2019 19:09

#	Program:	/corina/corina34_cracker 3.40 0067  02.08.2006

@<TRIPOS>MOLECULE
ASD01200384
  81   84    0    0    0
SMALL
NO_CHARGES


@<TRIPOS>ATOM
   1 N1            -0.0178     1.4608     0.0101 N.pl3   
   2 C2             0.0234     0.0158     0.2482 C.3     
   3 C3            -0.9862    -0.3505     1.3379 C.3     
   4 P4            -0.3970    -0.8659    -1.2910 P.3     
   5 C5             1.1735     2.1776    -0.1526 C.ar    
   6 O6            -0.2245    -2.4507    -1.0659 O.3     
   7 O7            -1.7989    -0.5700    -1.6618 O.2     
   8 O8             0.5841    -0.3816    -2.4721 O.3     
   9 C9             0.4417    -0.8112    -3.8275 C.3     
  10 C10            1.5324    -0.1656    -4.6844 C.3     
  11 C11           -0.5780    -3.4203    -2.0544 C.3     
  12 C12           -0.2881    -4.8238    -1.5187 C.3     
  13 C13            2.3819     1.5065    -0.2167 C.ar    
  14 C14            3.5681     2.2255    -0.3795 C.ar    
  15 C15            3.5294     3.6182    -0.4768 C.ar    
  16 C16            2.3220     4.2814    -0.4123 C.ar    
  17 C17            1.1425     3.5684    -0.2559 C.ar    
  18 N18           -2.3357     0.0362     0.9051 N.3     
  19 O19           -0.0447     4.2268    -0.1928 O.3     
  20 C20            4.8606     1.5147    -0.4480 C.2     
  21 N21            6.0200     2.0930    -0.5981 N.2     
  22 C22            7.0730     1.3218    -0.6400 C.2     
  23 C23            6.7919    -0.0132    -0.5166 C.2     
  24 S24            5.0474    -0.1805    -0.3345 S.3     
  25 C25            7.7667    -1.1046    -0.5278 C.2     
  26 C26            8.4729     1.8533    -0.8098 C.3     
  27 O27            7.3513    -2.3814    -0.3961 O.3     
  28 O28            8.9514    -0.8606    -0.6559 O.2     
  29 C29            8.3572    -3.3962    -0.4159 C.3     
  30 C30            7.7003    -4.7686    -0.2548 C.3     
  31 C31           -3.3337    -0.3012     1.9288 C.3     
  32 C32           -3.4099     0.8118     2.9421 C.ar    
  33 C33           -4.6807    -0.4805     1.2773 C.ar    
  34 C34           -3.5432     0.5153     4.2856 C.ar    
  35 C35           -3.6132     1.5362     5.2151 C.ar    
  36 C36           -3.5493     2.8535     4.8009 C.ar    
  37 C37           -3.4151     3.1499     3.4574 C.ar    
  38 C38           -3.3408     2.1290     2.5284 C.ar    
  39 C39           -5.0739     0.3667     0.2582 C.ar    
  40 C40           -5.5209    -1.4957     1.6951 C.ar    
  41 C41           -6.7565    -1.6601     1.0975 C.ar    
  42 C42           -7.1522    -0.8091     0.0825 C.ar    
  43 C43           -6.3095     0.2022    -0.3394 C.ar    
  44 H44           -0.8707     1.9201    -0.0389 H       
  45 H45            1.0248    -0.2710     0.5693 H       
  46 H46           -0.9555    -1.4256     1.5150 H       
  47 H47           -0.7348     0.1767     2.2582 H       
  48 H48            0.5356    -1.8961    -3.8766 H       
  49 H49           -0.5380    -0.5141    -4.2018 H       
  50 H50            1.4238    -0.4933    -5.7183 H       
  51 H51            1.4385     0.9192    -4.6354 H       
  52 H52            2.5121    -0.4628    -4.3102 H       
  53 H53           -1.6393    -3.3320    -2.2866 H       
  54 H54            0.0072    -3.2481    -2.9577 H       
  55 H55           -0.5577    -5.5633    -2.2726 H       
  56 H56            0.7732    -4.9120    -1.2864 H       
  57 H57           -0.8732    -4.9959    -0.6153 H       
  58 H58            2.4078     0.4295    -0.1406 H       
  59 H59            4.4456     4.1761    -0.6024 H       
  60 H60            2.2943     5.3584    -0.4875 H       
  61 H61           -2.3736     1.0173     0.6725 H       
  62 H62           -0.4683     4.3573    -1.0523 H       
  63 H63            8.9060     2.0559     0.1697 H       
  64 H64            9.0816     1.1139    -1.3303 H       
  65 H65            8.4437     2.7745    -1.3917 H       
  66 H66            8.8925    -3.3587    -1.3646 H       
  67 H67            9.0571    -3.2299     0.4030 H       
  68 H68            8.4676    -5.5426    -0.2698 H       
  69 H69            7.1650    -4.8060     0.6940 H       
  70 H70            7.0004    -4.9348    -1.0737 H       
  71 H71           -3.0448    -1.2267     2.4268 H       
  72 H72           -3.5931    -0.5139     4.6092 H       
  73 H73           -3.7181     1.3046     6.2647 H       
  74 H74           -3.6047     3.6511     5.5270 H       
  75 H75           -3.3656     4.1791     3.1338 H       
  76 H76           -3.2359     2.3606     1.4788 H       
  77 H77           -4.4158     1.1573    -0.0709 H       
  78 H78           -5.2117    -2.1605     2.4880 H       
  79 H79           -7.4126    -2.4537     1.4234 H       
  80 H80           -8.1174    -0.9378    -0.3845 H       
  81 H81           -6.6166     0.8641    -1.1356 H       
@<TRIPOS>BOND
   1    1    2 1
   2    1    5 1
   3    1   44 1
   4    2    3 1
   5    2    4 1
   6    2   45 1
   7    3   18 1
   8    3   46 1
   9    3   47 1
  10    4    6 1
  11    4    7 2
  12    4    8 1
  13    5   13 ar
  14    5   17 ar
  15    6   11 1
  16    8    9 1
  17    9   10 1
  18    9   48 1
  19    9   49 1
  20   10   50 1
  21   10   51 1
  22   10   52 1
  23   11   12 1
  24   11   53 1
  25   11   54 1
  26   12   55 1
  27   12   56 1
  28   12   57 1
  29   13   14 ar
  30   13   58 1
  31   14   15 ar
  32   14   20 1
  33   15   16 ar
  34   15   59 1
  35   16   17 ar
  36   16   60 1
  37   17   19 1
  38   18   31 1
  39   18   61 1
  40   19   62 1
  41   20   21 2
  42   20   24 1
  43   21   22 1
  44   22   23 2
  45   22   26 1
  46   23   24 1
  47   23   25 1
  48   25   27 1
  49   25   28 2
  50   26   63 1
  51   26   64 1
  52   26   65 1
  53   27   29 1
  54   29   30 1
  55   29   66 1
  56   29   67 1
  57   30   68 1
  58   30   69 1
  59   30   70 1
  60   31   32 1
  61   31   33 1
  62   31   71 1
  63   32   34 ar
  64   32   38 ar
  65   33   40 ar
  66   33   39 ar
  67   34   35 ar
  68   34   72 1
  69   35   36 ar
  70   35   73 1
  71   36   37 ar
  72   36   74 1
  73   37   38 ar
  74   37   75 1
  75   38   76 1
  76   39   43 ar
  77   39   77 1
  78   40   41 ar
  79   40   78 1
  80   41   42 ar
  81   41   79 1
  82   42   43 ar
  83   42   80 1
  84   43   81 1

#	End of record

