#	Name: ASD06170073
#	Creating user name:	WinNT
#	Creation time:	15. 06. 2019 21:05

#	Modifying user name:	WinNT
#	Modification time:	15. 06. 2019 21:05

#	Program:	/corina/corina34_cracker 3.40 0067  02.08.2006

@<TRIPOS>MOLECULE
ASD06170073
  75   79    0    0    0
SMALL
NO_CHARGES


@<TRIPOS>ATOM
   1 N1             0.0360     1.5278    -0.3346 N.pl3   
   2 N2            -0.0070     0.1429    -0.1481 N.am    
   3 C3             1.2328    -0.2869     0.1660 C.2     
   4 C4             2.0980     0.9033     0.1751 C.2     
   5 C5             1.2904     1.9780    -0.1416 C.2     
   6 C6             3.5365     0.9411     0.4649 C.2     
   7 O7             4.1350     2.0003     0.4383 O.2     
   8 N8             4.1945    -0.1974     0.7605 N.am    
   9 C9            -1.1446    -0.6620    -0.2668 C.ar    
  10 C10           -2.0170    -0.4812    -1.3323 C.ar    
  11 C11           -3.1392    -1.2781    -1.4468 C.ar    
  12 C12           -3.3949    -2.2548    -0.5019 C.ar    
  13 C13           -2.5283    -2.4374     0.5601 C.ar    
  14 C14           -1.4013    -1.6477     0.6774 C.ar    
  15 O15            1.5691    -1.4333     0.3968 O.2     
  16 C16            1.7378     3.4128    -0.2532 C.3     
  17 C17            5.5903    -0.1904     0.8729 C.ar    
  18 C18            6.2506     0.9704     1.2542 C.ar    
  19 C19            7.6283     0.9762     1.3653 C.ar    
  20 C20            8.3516    -0.1795     1.0953 C.ar    
  21 C21            7.6913    -1.3377     0.7147 C.ar    
  22 C22            6.3139    -1.3454     0.6086 C.ar    
  23 O23            9.7072    -0.1741     1.2040 O.3     
  24 N24           11.3233    -0.1225     4.9980 N.ar    
  25 C25           10.0244    -0.0330     4.8325 C.ar    
  26 C26            9.4443    -0.0468     3.5706 C.ar    
  27 C27           10.2458    -0.1576     2.4478 C.ar    
  28 C28           11.6431    -0.2534     2.6378 C.ar    
  29 C29           12.5191    -0.3678     1.5484 C.ar    
  30 C30           13.8598    -0.4577     1.7639 C.ar    
  31 C31           14.3784    -0.4376     3.0618 C.ar    
  32 C32           13.5447    -0.3268     4.1516 C.ar    
  33 C33           12.1575    -0.2320     3.9571 C.ar    
  34 O34           15.7206    -0.5289     3.2499 O.3     
  35 C35           16.5334    -0.6422     2.0801 C.3     
  36 F36            8.2717     2.1049     1.7358 F       
  37 C37           -1.1121     2.3643    -0.6930 C.3     
  38 C38           -1.7037     2.9879     0.5727 C.3     
  39 C39           -2.9027     3.8615     0.1983 C.3     
  40 O40           -2.1280     1.9518     1.4606 O.3     
  41 N41           -3.3968     4.5541     1.3959 N.3     
  42 C42           -2.4051     5.5166     1.8942 C.3     
  43 C43           -4.6825     5.2130     1.1301 C.3     
  44 H44            3.7012    -1.0217     0.8955 H       
  45 H45           -1.8183     0.2819    -2.0702 H       
  46 H46           -3.8180    -1.1380    -2.2751 H       
  47 H47           -4.2735    -2.8761    -0.5934 H       
  48 H48           -2.7308    -3.2011     1.2964 H       
  49 H49           -0.7227    -1.7935     1.5048 H       
  50 H50            1.6415     3.8999     0.7171 H       
  51 H51            2.7790     3.4448    -0.5741 H       
  52 H52            1.1164     3.9313    -0.9833 H       
  53 H53            5.6879     1.8682     1.4636 H       
  54 H54            8.2538    -2.2355     0.5049 H       
  55 H55            5.8001    -2.2492     0.3160 H       
  56 H56            9.3891     0.0539     5.7016 H       
  57 H57            8.3720     0.0279     3.4661 H       
  58 H58           12.1305    -0.3849     0.5409 H       
  59 H59           14.5309    -0.5461     0.9223 H       
  60 H60           13.9553    -0.3129     5.1504 H       
  61 H61           17.5819    -0.7070     2.3711 H       
  62 H62           16.2533    -1.5397     1.5286 H       
  63 H63           16.3851     0.2336     1.4484 H       
  64 H64           -0.7884     3.1546    -1.3703 H       
  65 H65           -1.8685     1.7521    -1.1842 H       
  66 H66           -0.9473     3.6001     1.0638 H       
  67 H67           -2.5982     4.5965    -0.5468 H       
  68 H68           -3.6948     3.2350    -0.2118 H       
  69 H69           -2.8023     1.3668     1.0888 H       
  70 H70           -2.1983     6.2577     1.1221 H       
  71 H71           -2.7964     6.0152     2.7810 H       
  72 H72           -1.4849     4.9910     2.1491 H       
  73 H73           -5.4180     4.4667     0.8296 H       
  74 H74           -5.0255     5.7180     2.0331 H       
  75 H75           -4.5582     5.9431     0.3304 H       
@<TRIPOS>BOND
   1    1    2 1
   2    1    5 1
   3    1   37 1
   4    2    3 am
   5    2    9 1
   6    3    4 1
   7    3   15 2
   8    4    5 2
   9    4    6 1
  10    5   16 1
  11    6    7 2
  12    6    8 am
  13    8   17 1
  14    8   44 1
  15    9   10 ar
  16    9   14 ar
  17   10   11 ar
  18   10   45 1
  19   11   12 ar
  20   11   46 1
  21   12   13 ar
  22   12   47 1
  23   13   14 ar
  24   13   48 1
  25   14   49 1
  26   16   50 1
  27   16   51 1
  28   16   52 1
  29   17   18 ar
  30   17   22 ar
  31   18   19 ar
  32   18   53 1
  33   19   20 ar
  34   19   36 1
  35   20   21 ar
  36   20   23 1
  37   21   22 ar
  38   21   54 1
  39   22   55 1
  40   23   27 1
  41   24   25 ar
  42   24   33 ar
  43   25   26 ar
  44   25   56 1
  45   26   27 ar
  46   26   57 1
  47   27   28 ar
  48   28   29 ar
  49   28   33 ar
  50   29   30 ar
  51   29   58 1
  52   30   31 ar
  53   30   59 1
  54   31   32 ar
  55   31   34 1
  56   32   33 ar
  57   32   60 1
  58   34   35 1
  59   35   61 1
  60   35   62 1
  61   35   63 1
  62   37   38 1
  63   37   64 1
  64   37   65 1
  65   38   39 1
  66   38   40 1
  67   38   66 1
  68   39   41 1
  69   39   67 1
  70   39   68 1
  71   40   69 1
  72   41   42 1
  73   41   43 1
  74   42   70 1
  75   42   71 1
  76   42   72 1
  77   43   73 1
  78   43   74 1
  79   43   75 1

#	End of record

