#	Name: ASD00191026
#	Creating user name:	WinNT
#	Creation time:	15. 06. 2019 18:33

#	Modifying user name:	WinNT
#	Modification time:	15. 06. 2019 18:33

#	Program:	/corina/corina34_cracker 3.40 0067  02.08.2006

@<TRIPOS>MOLECULE
ASD00191026
  50   54    0    0    0
SMALL
NO_CHARGES


@<TRIPOS>ATOM
   1 C1             0.1172     1.4524    -1.1501 C.ar    
   2 C2             0.1574     0.1049    -1.3505 C.ar    
   3 C3             1.3353    -0.6121    -1.1675 C.ar    
   4 C4             2.4820     0.0185    -0.7813 C.ar    
   5 C5             2.4741     1.4006    -0.5674 C.ar    
   6 C6             1.2774     2.1346    -0.7529 C.ar    
   7 C7             3.6707     2.1209    -0.1547 C.ar    
   8 C8             3.5709     3.5028     0.0362 C.ar    
   9 C9             2.3253     4.1351    -0.1775 C.ar    
  10 N10            1.2617     3.4602    -0.5493 N.ar    
  11 N11            4.9677     1.7841     0.1181 N.pl3   
  12 C12            5.6203     2.9285     0.4605 C.2     
  13 N13            4.7977     3.9369     0.4117 N.2     
  14 C14            7.0762     3.0154     0.8398 C.3     
  15 C15            7.2345     2.7057     2.3298 C.3     
  16 C16            8.7126     2.7940     2.7148 C.3     
  17 C17            9.5145     1.7809     1.8954 C.3     
  18 C18            9.3562     2.0906     0.4054 C.3     
  19 C19            7.8781     2.0023     0.0204 C.3     
  20 N20            2.2231     5.5042     0.0113 N.pl3   
  21 C21            0.9808     6.1293    -0.0791 C.ar    
  22 C22           -0.1626     5.4581     0.3347 C.ar    
  23 C23           -1.4037     6.0813     0.2454 C.ar    
  24 C24           -1.4902     7.3925    -0.2659 C.ar    
  25 C25           -0.3311     8.0524    -0.6773 C.ar    
  26 C26            0.8920     7.4260    -0.5786 C.ar    
  27 C27           -2.5864     5.3946     0.6700 C.1     
  28 N28           -3.5246     4.8498     1.0069 N.1     
  29 C29           -2.7616     8.0440    -0.3631 C.1     
  30 N30           -3.7703     8.5609    -0.4403 N.1     
  31 H31           -0.8045     1.9947    -1.3009 H       
  32 H32           -0.7391    -0.4143    -1.6558 H       
  33 H33            1.3421    -1.6794    -1.3325 H       
  34 H34            3.3913    -0.5471    -0.6411 H       
  35 H35            5.3515     0.8942     0.0758 H       
  36 H36            7.4452     4.0207     0.6365 H       
  37 H37            6.6632     3.4275     2.9136 H       
  38 H38            6.8654     1.7004     2.5331 H       
  39 H39            9.0816     3.7993     2.5115 H       
  40 H40            8.8253     2.5734     3.7763 H       
  41 H41           10.5675     1.8438     2.1697 H       
  42 H42            9.1454     0.7756     2.0987 H       
  43 H43            9.7252     3.0958     0.2021 H       
  44 H44            9.9275     1.3688    -0.1784 H       
  45 H45            7.5091     0.9970     0.2237 H       
  46 H46            7.7653     2.2229    -1.0411 H       
  47 H47            3.0162     6.0275     0.2063 H       
  48 H48           -0.0887     4.4538     0.7250 H       
  49 H49           -0.3927     9.0566    -1.0699 H       
  50 H50            1.7861     7.9408    -0.8979 H       
@<TRIPOS>BOND
   1    1    2 ar
   2    1    6 ar
   3    1   31 1
   4    2    3 ar
   5    2   32 1
   6    3    4 ar
   7    3   33 1
   8    4    5 ar
   9    4   34 1
  10    5    6 ar
  11    5    7 ar
  12    6   10 ar
  13    7    8 ar
  14    7   11 1
  15    8    9 ar
  16    8   13 1
  17    9   10 ar
  18    9   20 1
  19   11   12 1
  20   11   35 1
  21   12   13 2
  22   12   14 1
  23   14   15 1
  24   14   19 1
  25   14   36 1
  26   15   16 1
  27   15   37 1
  28   15   38 1
  29   16   17 1
  30   16   39 1
  31   16   40 1
  32   17   18 1
  33   17   41 1
  34   17   42 1
  35   18   19 1
  36   18   43 1
  37   18   44 1
  38   19   45 1
  39   19   46 1
  40   20   21 1
  41   20   47 1
  42   21   22 ar
  43   21   26 ar
  44   22   23 ar
  45   22   48 1
  46   23   24 ar
  47   23   27 1
  48   24   25 ar
  49   24   29 1
  50   25   26 ar
  51   25   49 1
  52   26   50 1
  53   27   28 3
  54   29   30 3

#	End of record

