#	Name: ASD03910053
#	Creating user name:	WinNT
#	Creation time:	15. 06. 2019 20:47

#	Modifying user name:	WinNT
#	Modification time:	15. 06. 2019 20:47

#	Program:	/corina/corina34_cracker 3.40 0067  02.08.2006

@<TRIPOS>MOLECULE
ASD03910053
  68   70    0    0    0
SMALL
NO_CHARGES


@<TRIPOS>ATOM
   1 C1             0.4484    -0.0609     2.1249 C.ar    
   2 C2             1.4798     0.6013     1.4847 C.ar    
   3 C3             1.2199     1.7392     0.7432 C.ar    
   4 C4            -0.0714     2.2181     0.6402 C.ar    
   5 C5            -1.1095     1.5553     1.2819 C.ar    
   6 C6            -0.8460     0.4093     2.0207 C.ar    
   7 N7            -2.4189     2.0379     1.1795 N.am    
   8 C8            -2.6441     3.3645     1.1035 C.2     
   9 O9            -1.7215     4.1437     1.2159 O.2     
  10 C10           -4.0216     5.3859     0.8336 C.ar    
  11 C11           -3.8356     6.0377    -0.3715 C.ar    
  12 C12           -3.8218     7.4184    -0.4164 C.ar    
  13 C13           -3.9947     8.1509     0.7490 C.ar    
  14 C14           -4.1811     7.4944     1.9569 C.ar    
  15 C15           -4.1941     6.1136     1.9965 C.ar    
  16 O16           -3.9811     9.5092     0.7076 O.3     
  17 C17           -4.2071    10.1981     1.9390 C.3     
  18 C18           -5.5760     9.8640     2.4733 C.2     
  19 C19            0.7362    -1.3007     2.9319 C.3     
  20 C20            2.3469     2.4578     0.0472 C.3     
  21 O21           -5.7476     9.7423     3.6677 O.2     
  22 N22           -6.6095     9.7005     1.6239 N.am    
  23 C23           -4.0424     3.8797     0.8787 C.3     
  24 C24           -7.9157     9.2751     2.1329 C.3     
  25 C25           -7.9497     7.7719     2.2353 C.2     
  26 O26           -6.9821     7.1226     1.9158 O.2     
  27 O27           -9.0549     7.1544     2.6813 O.3     
  28 C28           -9.0136     9.7461     1.1770 C.3     
  29 C29           -3.1304     9.8078     2.9666 C.3     
  30 C30           -2.3863    11.1065     3.3402 C.3     
  31 C31           -3.4013    12.2316     3.0190 C.3     
  32 C32           -4.0810    11.7205     1.7236 C.3     
  33 C33           -8.8545     9.0391    -0.1705 C.3     
  34 C34          -10.3839     9.4117     1.7697 C.3     
  35 H35            2.4906     0.2293     1.5643 H       
  36 H36           -0.2737     3.1073     0.0615 H       
  37 H37           -1.6511    -0.1086     2.5206 H       
  38 H38           -3.1645     1.4176     1.1633 H       
  39 H39           -3.7007     5.4670    -1.2784 H       
  40 H40           -3.6762     7.9271    -1.3579 H       
  41 H41           -4.3156     8.0625     2.8656 H       
  42 H42           -4.3391     5.6021     2.9366 H       
  43 H43            0.9531    -1.0209     3.9628 H       
  44 H44           -0.1323    -1.9588     2.9091 H       
  45 H45            1.5961    -1.8190     2.5075 H       
  46 H46            2.4711     2.0524    -0.9570 H       
  47 H47            2.1156     3.5211    -0.0163 H       
  48 H48            3.2692     2.3198     0.6114 H       
  49 H49           -6.4885     9.8644     0.6755 H       
  50 H50           -4.4245     3.4931    -0.0661 H       
  51 H51           -4.6866     3.5495     1.6936 H       
  52 H52           -8.0809     9.7102     3.1185 H       
  53 H53           -9.0292     6.1890     2.7295 H       
  54 H54           -8.9329    10.8236     1.0337 H       
  55 H55           -3.5980     9.3775     3.8522 H       
  56 H56           -2.4355     9.0928     2.5261 H       
  57 H57           -2.1351    11.1106     4.4008 H       
  58 H58           -1.4875    11.2191     2.7338 H       
  59 H59           -4.1307    12.3346     3.8224 H       
  60 H60           -2.8872    13.1757     2.8391 H       
  61 H61           -3.4561    11.9320     0.8559 H       
  62 H62           -5.0655    12.1730     1.6053 H       
  63 H63           -8.9352     7.9616    -0.0272 H       
  64 H64           -9.6366     9.3747    -0.8515 H       
  65 H65           -7.8782     9.2774    -0.5928 H       
  66 H66          -10.4973     9.9153     2.7297 H       
  67 H67          -11.1660     9.7472     1.0887 H       
  68 H68          -10.4646     8.3341     1.9130 H       
@<TRIPOS>BOND
   1    1    2 ar
   2    1   19 1
   3    1    6 ar
   4    2    3 ar
   5    2   35 1
   6    3    4 ar
   7    3   20 1
   8    4    5 ar
   9    4   36 1
  10    5    6 ar
  11    5    7 1
  12    6   37 1
  13    7    8 am
  14    7   38 1
  15    8    9 2
  16    8   23 1
  17   10   11 ar
  18   10   15 ar
  19   10   23 1
  20   11   12 ar
  21   11   39 1
  22   12   13 ar
  23   12   40 1
  24   13   14 ar
  25   13   16 1
  26   14   15 ar
  27   14   41 1
  28   15   42 1
  29   16   17 1
  30   17   18 1
  31   17   29 1
  32   17   32 1
  33   18   21 2
  34   18   22 am
  35   19   43 1
  36   19   44 1
  37   19   45 1
  38   20   46 1
  39   20   47 1
  40   20   48 1
  41   22   24 1
  42   22   49 1
  43   23   50 1
  44   23   51 1
  45   24   25 1
  46   24   28 1
  47   24   52 1
  48   25   26 2
  49   25   27 1
  50   27   53 1
  51   28   33 1
  52   28   34 1
  53   28   54 1
  54   29   30 1
  55   29   55 1
  56   29   56 1
  57   30   31 1
  58   30   57 1
  59   30   58 1
  60   31   32 1
  61   31   59 1
  62   31   60 1
  63   32   61 1
  64   32   62 1
  65   33   63 1
  66   33   64 1
  67   33   65 1
  68   34   66 1
  69   34   67 1
  70   34   68 1

#	End of record

