#	Name: ASD01918040
#	Creating user name:	WinNT
#	Creation time:	15. 06. 2019 20:10

#	Modifying user name:	WinNT
#	Modification time:	15. 06. 2019 20:10

#	Program:	/corina/corina34_cracker 3.40 0067  02.08.2006

@<TRIPOS>MOLECULE
ASD01918040
  41   44    0    0    0
SMALL
NO_CHARGES


@<TRIPOS>ATOM
   1 N1             4.8246    -0.4051    -2.1403 N.ar    
   2 C2             5.2903     0.2906    -3.1584 C.ar    
   3 C3             5.1756     1.6735    -3.1863 C.ar    
   4 C4             4.5600     2.3226    -2.1226 C.ar    
   5 C5             4.0815     1.5531    -1.0676 C.ar    
   6 C6             4.2349     0.1746    -1.1136 C.ar    
   7 O7             3.4725     2.1431    -0.0058 O.3     
   8 C8             3.4500     3.5023     0.0434 C.2     
   9 N9             2.1950     5.5135    -0.0230 N.pl3   
  10 C10            2.2665     4.1538    -0.0661 C.2     
  11 C11            4.6508     4.2061     0.2122 C.2     
  12 C12            4.6245     5.5939     0.2620 C.2     
  13 C13            3.3312     6.2682     0.1348 C.2     
  14 C14            5.8649     6.3668     0.4386 C.2     
  15 N15            5.8193     7.7130     0.4845 N.am    
  16 C16            6.9767     8.4408     0.7571 C.ar    
  17 O17            6.9310     5.7905     0.5431 O.2     
  18 C18            1.1684     6.4046    -0.1050 C.2     
  19 N19            1.6811     7.6036    -0.0102 N.2     
  20 N20            2.9576     7.5323     0.1383 N.2     
  21 O21            5.6591     2.3835    -4.2395 O.3     
  22 N22            8.1366     7.8118     0.8625 N.ar    
  23 C23            6.9021     9.8204     0.9099 C.ar    
  24 C24            8.0580    10.5317     1.1802 C.ar    
  25 C25            9.2551     9.8342     1.2889 C.ar    
  26 C26            9.2557     8.4614     1.1193 C.ar    
  27 C27            6.2783     1.6418    -5.2924 C.3     
  28 F28           10.4065    10.4904     1.5515 F       
  29 H29            5.7672    -0.2217    -3.9808 H       
  30 H30            4.4561     3.3976    -2.1153 H       
  31 H31            3.8666    -0.4306    -0.2984 H       
  32 H32            1.3590     3.5816    -0.1909 H       
  33 H33            5.5865     3.6746     0.3030 H       
  34 H34            4.9812     8.1755     0.3279 H       
  35 H35            0.1231     6.1651    -0.2331 H       
  36 H36            5.9546    10.3305     0.8184 H       
  37 H37            8.0304    11.6043     1.3035 H       
  38 H38           10.1836     7.9146     1.1986 H       
  39 H39            7.1301     1.0896    -4.8956 H       
  40 H40            5.5577     0.9426    -5.7167 H       
  41 H41            6.6192     2.3275    -6.0680 H       
@<TRIPOS>BOND
   1    1    2 ar
   2    1    6 ar
   3    2    3 ar
   4    2   29 1
   5    3    4 ar
   6    3   21 1
   7    4    5 ar
   8    4   30 1
   9    5    6 ar
  10    5    7 1
  11    6   31 1
  12    7    8 1
  13    8   11 1
  14    8   10 2
  15    9   10 1
  16    9   18 1
  17    9   13 1
  18   10   32 1
  19   11   12 2
  20   11   33 1
  21   12   13 1
  22   12   14 1
  23   13   20 2
  24   14   15 am
  25   14   17 2
  26   15   16 1
  27   15   34 1
  28   16   23 ar
  29   16   22 ar
  30   18   19 2
  31   18   35 1
  32   19   20 1
  33   21   27 1
  34   22   26 ar
  35   23   24 ar
  36   23   36 1
  37   24   25 ar
  38   24   37 1
  39   25   26 ar
  40   25   28 1
  41   26   38 1
  42   27   39 1
  43   27   40 1
  44   27   41 1

#	End of record

