#	Name: ASD01882800
#	Creating user name:	WinNT
#	Creation time:	15. 06. 2019 19:45

#	Modifying user name:	WinNT
#	Modification time:	15. 06. 2019 19:45

#	Program:	/corina/corina34_cracker 3.40 0067  02.08.2006

@<TRIPOS>MOLECULE
ASD01882800
  38   39    0    0    0
SMALL
NO_CHARGES


@<TRIPOS>ATOM
   1 N1            -0.0819     1.4512    -1.1838 N.pl3   
   2 O2             1.1506    -0.5531    -0.7513 O.3     
   3 C3            -0.0080     0.1337    -0.8033 C.2     
   4 N4            -1.0469    -0.5639    -0.4607 N.2     
   5 C5            -0.5986    -1.9246    -0.1057 C.3     
   6 C6             0.9286    -1.7280     0.0554 C.3     
   7 C7             1.6985    -2.9285    -0.4987 C.3     
   8 O8             3.1023    -2.6963    -0.3665 O.3     
   9 C9             3.9342    -3.6733    -0.8141 C.ar    
  10 C10            5.3091    -3.5139    -0.7167 C.ar    
  11 C11            6.1524    -4.5083    -1.1725 C.ar    
  12 C12            5.6275    -5.6618    -1.7259 C.ar    
  13 C13            4.2580    -5.8228    -1.8245 C.ar    
  14 C14            3.4101    -4.8339    -1.3640 C.ar    
  15 C15            7.6458    -4.3359    -1.0670 C.3     
  16 C16            6.5499    -6.7450    -2.2228 C.3     
  17 C17            6.1805    -8.0734    -1.5597 C.3     
  18 C18            6.4109    -6.8767    -3.7407 C.3     
  19 H19            0.7243     1.9306    -1.4310 H       
  20 H20           -0.9408     1.9012    -1.2091 H       
  21 H21           -1.0501    -2.2513     0.8310 H       
  22 H22           -0.8180    -2.6286    -0.9084 H       
  23 H23            1.1917    -1.5432     1.0969 H       
  24 H24            1.4244    -3.8245     0.0582 H       
  25 H25            1.4504    -3.0649    -1.5513 H       
  26 H26            5.7195    -2.6129    -0.2853 H       
  27 H27            3.8505    -6.7245    -2.2574 H       
  28 H28            2.3402    -4.9622    -1.4368 H       
  29 H29            8.0034    -4.8150    -0.1556 H       
  30 H30            8.1264    -4.7946    -1.9312 H       
  31 H31            7.8877    -3.2735    -1.0380 H       
  32 H32            7.5794    -6.4883    -1.9732 H       
  33 H33            5.1510    -8.3302    -1.8093 H       
  34 H34            6.8477    -8.8569    -1.9191 H       
  35 H35            6.2796    -7.9796    -0.4782 H       
  36 H36            7.0781    -7.6601    -4.1002 H       
  37 H37            5.3814    -7.1334    -3.9904 H       
  38 H38            6.6741    -5.9303    -4.2132 H       
@<TRIPOS>BOND
   1    1    3 1
   2    1   19 1
   3    1   20 1
   4    2    3 1
   5    2    6 1
   6    3    4 2
   7    4    5 1
   8    5    6 1
   9    5   21 1
  10    5   22 1
  11    6    7 1
  12    6   23 1
  13    7    8 1
  14    7   24 1
  15    7   25 1
  16    8    9 1
  17    9   10 ar
  18    9   14 ar
  19   10   11 ar
  20   10   26 1
  21   11   12 ar
  22   11   15 1
  23   12   13 ar
  24   12   16 1
  25   13   14 ar
  26   13   27 1
  27   14   28 1
  28   15   29 1
  29   15   30 1
  30   15   31 1
  31   16   17 1
  32   16   18 1
  33   16   32 1
  34   17   33 1
  35   17   34 1
  36   17   35 1
  37   18   36 1
  38   18   37 1
  39   18   38 1

#	End of record

