#	Name: ASD03731850
#	Creating user name:	WinNT
#	Creation time:	15. 06. 2019 20:46

#	Modifying user name:	WinNT
#	Modification time:	15. 06. 2019 20:46

#	Program:	/corina/corina34_cracker 3.40 0067  02.08.2006

@<TRIPOS>MOLECULE
ASD03731850
  44   46    0    0    0
SMALL
NO_CHARGES


@<TRIPOS>ATOM
   1 C1            -0.0258     1.4686    -0.1590 C.2     
   2 C2            -0.0043    -0.0053    -0.1228 C.ar    
   3 C3             0.0619    -0.6768     1.1040 C.ar    
   4 C4             0.0818    -2.0566     1.1321 C.ar    
   5 C5             0.0367    -2.7775    -0.0540 C.ar    
   6 C6            -0.0291    -2.1133    -1.2752 C.ar    
   7 C7            -0.0557    -0.7367    -1.3130 C.ar    
   8 O8             0.0139     2.1029     0.8778 O.2     
   9 N9            -0.0839     2.1129    -1.3413 N.am    
  10 O10            0.0574    -4.1342    -0.0222 O.3     
  11 C11            1.2585    -4.7564    -0.1419 C.ar    
  12 C12            1.3394    -6.1500    -0.0508 C.ar    
  13 C13            2.5760    -6.7790    -0.1754 C.ar    
  14 C14            3.7132    -6.0263    -0.3877 C.ar    
  15 C15            3.6302    -4.6479    -0.4775 C.ar    
  16 C16            2.4080    -4.0137    -0.3606 C.ar    
  17 C17            5.0505    -6.7080    -0.5219 C.3     
  18 F18            5.2845    -7.0151    -1.8665 F       
  19 F19            6.0573    -5.8557    -0.0561 F       
  20 F20            5.0510    -7.8863     0.2325 F       
  21 C21           -0.7776    -6.6354     1.2058 C.ar    
  22 C22            0.1146    -6.9538     0.1779 C.ar    
  23 C23           -0.1882    -8.0578    -0.6288 C.ar    
  24 C24           -1.3491    -8.7589    -0.3549 C.ar    
  25 N25           -2.1293    -8.3796     0.6401 N.ar    
  26 N26           -1.8576    -7.3695     1.3826 N.ar    
  27 S27           -0.1081     3.7682    -1.3820 S.o2    
  28 O28           -0.1959     4.0836    -2.7647 O.2     
  29 O29           -1.1477     4.1257    -0.4816 O.2     
  30 C30            1.5065     4.2609    -0.7180 C.3     
  31 F31            0.1066     0.0244     2.2579 F       
  32 Cl32          -0.0851    -3.0217    -2.7535 Cl      
  33 H33            0.1328    -2.5762     2.0775 H       
  34 H34           -0.1117    -0.2229    -2.2613 H       
  35 H35           -0.1116     1.6070    -2.1685 H       
  36 H36            2.6449    -7.8545    -0.1056 H       
  37 H37            4.5243    -4.0654    -0.6437 H       
  38 H38            2.3490    -2.9379    -0.4356 H       
  39 H39           -0.5805    -5.7947     1.8546 H       
  40 H40            0.4630    -8.3521    -1.4386 H       
  41 H41           -1.6170    -9.6159    -0.9551 H       
  42 H42            2.2979     3.8500    -1.3449 H       
  43 H43            1.5787     5.3485    -0.7080 H       
  44 H44            1.6131     3.8803     0.2978 H       
@<TRIPOS>BOND
   1    1    2 1
   2    1    8 2
   3    1    9 am
   4    2    3 ar
   5    2    7 ar
   6    3    4 ar
   7    3   31 1
   8    4    5 ar
   9    4   33 1
  10    5    6 ar
  11    5   10 1
  12    6    7 ar
  13    6   32 1
  14    7   34 1
  15    9   27 am
  16    9   35 1
  17   10   11 1
  18   11   12 ar
  19   11   16 ar
  20   12   13 ar
  21   12   22 1
  22   13   14 ar
  23   13   36 1
  24   14   15 ar
  25   14   17 1
  26   15   16 ar
  27   15   37 1
  28   16   38 1
  29   17   18 1
  30   17   19 1
  31   17   20 1
  32   21   22 ar
  33   21   26 ar
  34   21   39 1
  35   22   23 ar
  36   23   24 ar
  37   23   40 1
  38   24   25 ar
  39   24   41 1
  40   25   26 ar
  41   27   28 2
  42   27   29 2
  43   27   30 1
  44   30   42 1
  45   30   43 1
  46   30   44 1

#	End of record

