#	Name: ASD09800053
#	Creating user name:	WinNT
#	Creation time:	15. 06. 2019 21:24

#	Modifying user name:	WinNT
#	Modification time:	15. 06. 2019 21:24

#	Program:	/corina/corina34_cracker 3.40 0067  02.08.2006

@<TRIPOS>MOLECULE
ASD09800053
  55   60    0    0    0
SMALL
NO_CHARGES


@<TRIPOS>ATOM
   1 C1            -2.5819    -0.3595     2.9512 C.2     
   2 N2            -3.4941    -1.1678     3.4599 N.2     
   3 C3            -4.5943    -1.4965     2.7704 C.2     
   4 C4            -4.8193    -1.0203     1.5324 C.2     
   5 C5            -2.7711     0.1731     1.6600 C.2     
   6 C6            -2.0426     1.0267     0.8386 C.2     
   7 N7            -3.9046    -0.1730     0.9480 N.pl3   
   8 C8            -3.8408     0.4627    -0.2357 C.2     
   9 N9            -2.7429     1.1719    -0.2984 N.2     
  10 C10           -0.7444     1.6554     1.1567 C.ar    
  11 C11            0.6473     3.6487     1.4210 C.ar    
  12 C12            1.7351     2.8187     1.7669 C.ar    
  13 C13            1.5719     1.4490     1.7958 C.ar    
  14 C14            0.3473     0.8700     1.4945 C.ar    
  15 C15           -0.6046     3.0646     1.1129 C.ar    
  16 N16            2.9758     3.3823     2.0725 N.am    
  17 C17            4.0959     2.6392     1.9747 C.2     
  18 N18            5.2793     3.1486     2.3705 N.am    
  19 O19            4.0389     1.5092     1.5294 O.2     
  20 N20           -1.4520    -0.0334     3.6826 N.pl3   
  21 C21           -4.8755     0.3683    -1.3273 C.3     
  22 C22           -6.3127     0.7560    -0.9738 C.3     
  23 C23           -5.4667     1.6769    -1.8554 C.3     
  24 C24           -4.6772    -0.7723    -2.3276 C.3     
  25 C25            0.7851     5.0453     1.3762 C.ar    
  26 C26           -1.6842     3.8905     0.7695 C.ar    
  27 C27           -1.5162     5.2422     0.7365 C.ar    
  28 C28           -0.2846     5.8179     1.0391 C.ar    
  29 C29            6.4968     2.3409     2.2642 C.3     
  30 C30            7.8298     3.0836     2.1529 C.3     
  31 C31            7.4632     2.3602     3.4503 C.3     
  32 H32           -5.3184    -2.1604     3.2191 H       
  33 H33           -5.7146    -1.3021     0.9982 H       
  34 H34            2.4080     0.8187     2.0608 H       
  35 H35            0.2432    -0.2046     1.5238 H       
  36 H36            3.0313     4.3085     2.3552 H       
  37 H37            5.3247     4.0501     2.7258 H       
  38 H38           -1.2642    -0.4931     4.5158 H       
  39 H39           -0.8484     0.6548     3.3616 H       
  40 H40           -7.1170     0.1988    -1.4543 H       
  41 H41           -6.5099     1.0794     0.0482 H       
  42 H42           -5.1073     2.6061    -1.4133 H       
  43 H43           -5.7144     1.7255    -2.9158 H       
  44 H44           -4.5914    -1.7165    -1.7898 H       
  45 H45           -5.5313    -0.8155    -3.0034 H       
  46 H46           -3.7677    -0.5975    -2.9023 H       
  47 H47            1.7346     5.5047     1.6082 H       
  48 H48           -2.6446     3.4572     0.5319 H       
  49 H49           -2.3495     5.8760     0.4716 H       
  50 H50           -0.1761     6.8919     1.0052 H       
  51 H51            6.3942     1.4059     1.7135 H       
  52 H52            8.6042     2.6371     1.5293 H       
  53 H53            7.8009     4.1732     2.1588 H       
  54 H54            7.1930     2.9739     4.3097 H       
  55 H55            7.9964     1.4377     3.6801 H       
@<TRIPOS>BOND
   1    1    2 2
   2    1   20 1
   3    1    5 1
   4    2    3 1
   5    3    4 2
   6    3   32 1
   7    4    7 1
   8    4   33 1
   9    5    7 1
  10    5    6 2
  11    6    9 1
  12    6   10 1
  13    7    8 1
  14    8    9 2
  15    8   21 1
  16   10   15 ar
  17   10   14 ar
  18   11   12 ar
  19   11   15 ar
  20   11   25 ar
  21   12   13 ar
  22   12   16 1
  23   13   14 ar
  24   13   34 1
  25   14   35 1
  26   15   26 ar
  27   16   17 am
  28   16   36 1
  29   17   18 am
  30   17   19 2
  31   18   29 1
  32   18   37 1
  33   20   38 1
  34   20   39 1
  35   21   22 1
  36   21   23 1
  37   21   24 1
  38   22   23 1
  39   22   40 1
  40   22   41 1
  41   23   42 1
  42   23   43 1
  43   24   44 1
  44   24   45 1
  45   24   46 1
  46   25   28 ar
  47   25   47 1
  48   26   27 ar
  49   26   48 1
  50   27   28 ar
  51   27   49 1
  52   28   50 1
  53   29   30 1
  54   29   31 1
  55   29   51 1
  56   30   31 1
  57   30   52 1
  58   30   53 1
  59   31   54 1
  60   31   55 1

#	End of record

