#	Name: ASD03430003
#	Creating user name:	WinNT
#	Creation time:	15. 06. 2019 20:40

#	Modifying user name:	WinNT
#	Modification time:	15. 06. 2019 20:40

#	Program:	/corina/corina34_cracker 3.40 0067  02.08.2006

@<TRIPOS>MOLECULE
ASD03430003
  47   51    0    0    0
SMALL
NO_CHARGES


@<TRIPOS>ATOM
   1 O1             0.1154     1.4585     0.3381 O.3     
   2 C2             0.1571    -0.6658     1.4344 C.ar    
   3 C3             0.1013    -2.0601     1.3442 C.ar    
   4 C4            -0.0354    -2.6656     0.1193 C.ar    
   5 C5            -0.1112    -1.9058    -1.0496 C.ar    
   6 C6            -0.0625    -0.5171    -0.9623 C.ar    
   7 C7             0.0697     0.1042     0.2644 C.ar    
   8 O8            -0.2136    -2.7035    -2.1488 O.3     
   9 C9            -0.1449    -4.1072    -0.3007 C.3     
  10 C10           -0.6515    -4.0153    -1.7465 C.3     
  11 C11            0.9492    -5.9049     0.6429 C.ar    
  12 C12            1.1674    -4.8282    -0.2126 C.ar    
  13 C13           -1.0860    -4.8849     0.5735 C.2     
  14 N14           -0.3758    -5.9100     1.0852 N.am    
  15 O15           -2.2557    -4.6387     0.7792 O.2     
  16 C16            2.4064    -4.6208    -0.7766 C.ar    
  17 C17            3.4493    -5.4854    -0.4954 C.ar    
  18 C18            3.2442    -6.5577     0.3535 C.ar    
  19 C19            2.0052    -6.7695     0.9214 C.ar    
  20 C20           -0.9292    -6.9129     1.9984 C.3     
  21 C21           -0.7348    -6.4578     3.4218 C.ar    
  22 C22           -0.0284    -5.2998     3.6867 C.ar    
  23 C23            0.1500    -4.8823     4.9926 C.ar    
  24 C24           -0.3784    -5.6228     6.0332 C.ar    
  25 C25           -1.0859    -6.7807     5.7682 C.ar    
  26 C26           -1.2679    -7.1957     4.4624 C.ar    
  27 C27            0.2962    -0.0293     2.7096 C.1     
  28 N28            0.4066     0.4756     3.7212 N.1     
  29 C29           -2.0391    -8.4578     4.1735 C.3     
  30 F30           -2.4165    -9.0599     5.3786 F       
  31 F31           -3.1823    -8.1459     3.4299 F       
  32 F32           -1.2342    -9.3393     3.4439 F       
  33 H33            1.0078     1.8258     0.2772 H       
  34 H34            0.1662    -2.6614     2.2389 H       
  35 H35           -0.1283     0.0790    -1.8605 H       
  36 H36           -1.7385    -4.0878    -1.7809 H       
  37 H37           -0.1915    -4.7841    -2.3673 H       
  38 H38            2.5641    -3.7828    -1.4394 H       
  39 H39            4.4210    -5.3235    -0.9381 H       
  40 H40            4.0583    -7.2325     0.5732 H       
  41 H41            1.8533    -7.6085     1.5843 H       
  42 H42           -1.9935    -7.0378     1.7991 H       
  43 H43           -0.4173    -7.8633     1.8477 H       
  44 H44            0.3846    -4.7212     2.8737 H       
  45 H45            0.7026    -3.9778     5.1997 H       
  46 H46           -0.2385    -5.2970     7.0533 H       
  47 H47           -1.4985    -7.3594     6.5813 H       
@<TRIPOS>BOND
   1    1    7 1
   2    1   33 1
   3    2    3 ar
   4    2    7 ar
   5    2   27 1
   6    3    4 ar
   7    3   34 1
   8    4    5 ar
   9    4    9 1
  10    5    6 ar
  11    5    8 1
  12    6    7 ar
  13    6   35 1
  14    8   10 1
  15    9   10 1
  16    9   12 1
  17    9   13 1
  18   10   36 1
  19   10   37 1
  20   11   12 ar
  21   11   14 1
  22   11   19 ar
  23   12   16 ar
  24   13   14 am
  25   13   15 2
  26   14   20 1
  27   16   17 ar
  28   16   38 1
  29   17   18 ar
  30   17   39 1
  31   18   19 ar
  32   18   40 1
  33   19   41 1
  34   20   21 1
  35   20   42 1
  36   20   43 1
  37   21   22 ar
  38   21   26 ar
  39   22   23 ar
  40   22   44 1
  41   23   24 ar
  42   23   45 1
  43   24   25 ar
  44   24   46 1
  45   25   26 ar
  46   25   47 1
  47   26   29 1
  48   27   28 3
  49   29   30 1
  50   29   31 1
  51   29   32 1

#	End of record

