#	Name: ASD05503055
#	Creating user name:	WinNT
#	Creation time:	15. 06. 2019 21:01

#	Modifying user name:	WinNT
#	Modification time:	15. 06. 2019 21:01

#	Program:	/corina/corina34_cracker 3.40 0067  02.08.2006

@<TRIPOS>MOLECULE
ASD05503055
  37   38    0    0    0
SMALL
NO_CHARGES


@<TRIPOS>ATOM
   1 C1            -0.1487     1.3626     0.4412 C.ar    
   2 C2            -0.0925    -0.0163     0.2840 C.ar    
   3 C3             1.1370    -0.6543     0.2031 C.ar    
   4 C4             2.3068     0.0879     0.2796 C.ar    
   5 C5             2.2437     1.4671     0.4369 C.ar    
   6 C6             1.0180     2.0991     0.5172 C.ar    
   7 N7            -1.2747    -0.7614     0.2078 N.am    
   8 C8            -1.3355    -1.8495    -0.5852 C.2     
   9 O9            -2.4340    -2.6281    -0.5769 O.3     
  10 O10           -0.3989    -2.1279    -1.3077 O.2     
  11 C11           -2.4298    -3.7834    -1.4564 C.3     
  12 N12            3.5480    -0.5514     0.1989 N.am    
  13 C13            4.5816     0.0586    -0.4142 C.2     
  14 C14            5.8626    -0.6564    -0.5900 C.ar    
  15 C15            6.0058    -1.9638    -0.1223 C.ar    
  16 C16            7.2043    -2.6259    -0.2901 C.ar    
  17 C17            8.2638    -1.9974    -0.9203 C.ar    
  18 C18            8.1299    -0.7020    -1.3866 C.ar    
  19 C19            6.9344    -0.0292    -1.2302 C.ar    
  20 Br20           6.7525     1.7415    -1.8687 Br      
  21 C21           -3.7512    -4.5406    -1.3101 C.3     
  22 O22            4.4600     1.1972    -0.8226 O.2     
  23 H23           -1.1055     1.8603     0.4998 H       
  24 H24            1.1833    -1.7264     0.0812 H       
  25 H25            3.1538     2.0455     0.4965 H       
  26 H26            0.9716     3.1711     0.6398 H       
  27 H27           -2.0503    -0.4947     0.7256 H       
  28 H28           -2.3122    -3.4538    -2.4887 H       
  29 H29           -1.6027    -4.4409    -1.1885 H       
  30 H30            3.6649    -1.4339     0.5843 H       
  31 H31            5.1801    -2.4559     0.3702 H       
  32 H32            7.3162    -3.6373     0.0718 H       
  33 H33            9.1999    -2.5207    -1.0485 H       
  34 H34            8.9609    -0.2172    -1.8773 H       
  35 H35           -3.8687    -4.8702    -0.2778 H       
  36 H36           -4.5783    -3.8831    -1.5779 H       
  37 H37           -3.7481    -5.4079    -1.9703 H       
@<TRIPOS>BOND
   1    1    2 ar
   2    1    6 ar
   3    1   23 1
   4    2    3 ar
   5    2    7 1
   6    3    4 ar
   7    3   24 1
   8    4    5 ar
   9    4   12 1
  10    5    6 ar
  11    5   25 1
  12    6   26 1
  13    7    8 am
  14    7   27 1
  15    8    9 1
  16    8   10 2
  17    9   11 1
  18   11   21 1
  19   11   28 1
  20   11   29 1
  21   12   13 am
  22   12   30 1
  23   13   14 1
  24   13   22 2
  25   14   15 ar
  26   14   19 ar
  27   15   16 ar
  28   15   31 1
  29   16   17 ar
  30   16   32 1
  31   17   18 ar
  32   17   33 1
  33   18   19 ar
  34   18   34 1
  35   19   20 1
  36   21   35 1
  37   21   36 1
  38   21   37 1

#	End of record

