#	Name: ASD01910631
#	Creating user name:	WinNT
#	Creation time:	15. 06. 2019 19:56

#	Modifying user name:	WinNT
#	Modification time:	15. 06. 2019 19:56

#	Program:	/corina/corina34_cracker 3.40 0067  02.08.2006

@<TRIPOS>MOLECULE
ASD01910631
  43   46    0    0    0
SMALL
NO_CHARGES


@<TRIPOS>ATOM
   1 C1            -0.6624     1.7784    -1.9688 C.ar    
   2 N2            -0.7305     0.4887    -1.7058 N.ar    
   3 C3             0.2665    -0.1651    -1.1415 C.ar    
   4 C4             1.4360     0.4818    -0.7986 C.ar    
   5 C5             1.5556     1.8518    -1.0582 C.ar    
   6 C6             0.4727     2.5069    -1.6592 C.ar    
   7 C7             2.7897     2.5872    -0.7077 C.2     
   8 N8             3.0235     3.8727    -0.9004 N.2     
   9 C9             4.2619     4.0877    -0.4300 C.2     
  10 N10            4.7156     2.9538     0.0167 N.2     
  11 O11            3.8874     2.0794    -0.1268 O.3     
  12 C12            4.9943     5.4047    -0.4213 C.3     
  13 C13            5.3379     5.7886     1.0198 C.3     
  14 C14            6.0527     7.1417     1.0324 C.3     
  15 C15            7.3573     7.0330     0.2368 C.3     
  16 N16            7.0506     6.5251    -1.1073 N.am    
  17 C17            6.2869     5.2762    -1.2334 C.3     
  18 C18            7.4620     7.1921    -2.2039 C.2     
  19 C19            8.1558     8.4886    -2.0628 C.ar    
  20 O20            7.2621     6.7267    -3.3090 O.2     
  21 C21            9.2411     8.6116    -1.1927 C.ar    
  22 C22            9.8851     9.8236    -1.0652 C.ar    
  23 C23            9.4572    10.9194    -1.7990 C.ar    
  24 C24            8.3798    10.8030    -2.6640 C.ar    
  25 C25            7.7322     9.5942    -2.8034 C.ar    
  26 F26           10.0919    12.1051    -1.6703 F       
  27 F27            0.5357     3.8286    -1.9321 F       
  28 H28           -1.5016     2.2722    -2.4361 H       
  29 H29            0.1658    -1.2222    -0.9447 H       
  30 H30            2.2471    -0.0611    -0.3362 H       
  31 H31            4.3621     6.1754    -0.8622 H       
  32 H32            4.4214     5.8566     1.6058 H       
  33 H33            5.9898     5.0295     1.4522 H       
  34 H34            5.4111     7.8964     0.5776 H       
  35 H35            6.2763     7.4255     2.0608 H       
  36 H36            7.8208     8.0164     0.1588 H       
  37 H37            8.0366     6.3456     0.7410 H       
  38 H38            6.8788     4.4456    -0.8491 H       
  39 H39            6.0441     5.1006    -2.2814 H       
  40 H40            9.5750     7.7587    -0.6204 H       
  41 H41           10.7244     9.9199    -0.3924 H       
  42 H42            8.0503    11.6598    -3.2329 H       
  43 H43            6.8933     9.5045    -3.4777 H       
@<TRIPOS>BOND
   1    1    2 ar
   2    1    6 ar
   3    1   28 1
   4    2    3 ar
   5    3    4 ar
   6    3   29 1
   7    4    5 ar
   8    4   30 1
   9    5    6 ar
  10    5    7 1
  11    6   27 1
  12    7    8 2
  13    7   11 1
  14    8    9 1
  15    9   10 2
  16    9   12 1
  17   10   11 1
  18   12   13 1
  19   12   17 1
  20   12   31 1
  21   13   14 1
  22   13   32 1
  23   13   33 1
  24   14   15 1
  25   14   34 1
  26   14   35 1
  27   15   16 1
  28   15   36 1
  29   15   37 1
  30   16   17 1
  31   16   18 am
  32   17   38 1
  33   17   39 1
  34   18   19 1
  35   18   20 2
  36   19   21 ar
  37   19   25 ar
  38   21   22 ar
  39   21   40 1
  40   22   23 ar
  41   22   41 1
  42   23   24 ar
  43   23   26 1
  44   24   25 ar
  45   24   42 1
  46   25   43 1

#	End of record

