#	Name: ASD02500288
#	Creating user name:	WinNT
#	Creation time:	15. 06. 2019 20:22

#	Modifying user name:	WinNT
#	Modification time:	15. 06. 2019 20:22

#	Program:	/corina/corina34_cracker 3.40 0067  02.08.2006

@<TRIPOS>MOLECULE
ASD02500288
  61   65    0    0    0
SMALL
NO_CHARGES


@<TRIPOS>ATOM
   1 N1            -5.8827     4.3749     0.9519 N.ar    
   2 C2            -7.1365     4.7073     0.7626 C.ar    
   3 C3            -8.1601     4.1877     1.5524 C.ar    
   4 C4            -7.8677     3.3072     2.5546 C.ar    
   5 C5            -6.5202     2.9522     2.7547 C.ar    
   6 C6            -6.1432     2.0536     3.7653 C.ar    
   7 C7            -4.8290     1.7358     3.9271 C.ar    
   8 C8            -3.8525     2.2910     3.1031 C.ar    
   9 C9            -4.1827     3.1655     2.1137 C.ar    
  10 C10           -5.5287     3.5183     1.9153 C.ar    
  11 S11           -2.9274     3.8534     1.0862 S.o2    
  12 O12           -3.0828     5.2643     1.1528 O.2     
  13 O13           -1.7195     3.1875     1.4279 O.2     
  14 N14           -3.2766     3.4176    -0.4728 N.am    
  15 C15           -3.2004     2.0829    -0.8553 C.ar    
  16 C16           -2.7579     1.7506    -2.1331 C.ar    
  17 C17           -2.6814     0.4309    -2.5145 C.ar    
  18 C18           -3.0484    -0.5769    -1.6177 C.ar    
  19 C19           -3.4921    -0.2401    -0.3357 C.ar    
  20 C20           -3.5611     1.0816     0.0418 C.ar    
  21 C21           -2.3630     2.8376    -3.0993 C.3     
  22 F22           -1.9563     2.2620    -4.3078 F       
  23 F23           -3.4576     3.6783    -3.3282 F       
  24 F24           -1.3086     3.5814    -2.5589 F       
  25 C25           -2.9679    -1.9929    -2.0237 C.2     
  26 O26           -3.3710    -2.3353    -3.1186 O.2     
  27 N27           -2.4477    -2.9070    -1.1809 N.am    
  28 C28           -2.2291    -4.2919    -1.6218 C.3     
  29 C29           -0.7580    -4.6552    -1.3848 C.3     
  30 N30           -0.3987    -4.2849    -0.0087 N.am    
  31 C31           -0.6173    -2.9001     0.4322 C.3     
  32 C32           -2.0832    -2.5354     0.1934 C.3     
  33 C33            0.1215    -5.1991     0.8340 C.2     
  34 O34            0.1454    -6.3723     0.5184 O.2     
  35 C35            0.6644    -4.7736     2.1452 C.ar    
  36 C36            1.0488    -5.7283     3.0860 C.ar    
  37 N37            0.7916    -3.4798     2.4263 N.ar    
  38 N38            1.5326    -5.3440     4.2534 N.ar    
  39 C39            1.6522    -4.0573     4.5294 C.ar    
  40 C40            1.2753    -3.1050     3.5936 C.ar    
  41 H41           -7.3826     5.4026    -0.0263 H       
  42 H42           -9.1837     4.4814     1.3724 H       
  43 H43           -8.6485     2.8951     3.1766 H       
  44 H44           -6.8910     1.6172     4.4108 H       
  45 H45           -4.5398     1.0444     4.7048 H       
  46 H46           -2.8168     2.0236     3.2519 H       
  47 H47           -3.5344     4.0934    -1.1192 H       
  48 H48           -2.3385     0.1738    -3.5059 H       
  49 H49           -3.7763    -1.0163     0.3593 H       
  50 H50           -3.8993     1.3424     1.0338 H       
  51 H51           -2.8687    -4.9634    -1.0491 H       
  52 H52           -2.4609    -4.3787    -2.6834 H       
  53 H53           -0.6191    -5.7274    -1.5232 H       
  54 H54           -0.1285    -4.1086    -2.0869 H       
  55 H55           -0.3855    -2.8133     1.4937 H       
  56 H56            0.0223    -2.2286    -0.1406 H       
  57 H57           -2.2186    -1.4626     0.3304 H       
  58 H58           -2.7121    -3.0790     0.8984 H       
  59 H59            0.9507    -6.7800     2.8607 H       
  60 H60            2.0481    -3.7462     5.4848 H       
  61 H61            1.3791    -2.0545     3.8218 H       
@<TRIPOS>BOND
   1    1    2 ar
   2    1   10 ar
   3    2    3 ar
   4    2   41 1
   5    3    4 ar
   6    3   42 1
   7    4    5 ar
   8    4   43 1
   9    5    6 ar
  10    5   10 ar
  11    6    7 ar
  12    6   44 1
  13    7    8 ar
  14    7   45 1
  15    8    9 ar
  16    8   46 1
  17    9   10 ar
  18    9   11 1
  19   11   12 2
  20   11   13 2
  21   11   14 am
  22   14   15 1
  23   14   47 1
  24   15   16 ar
  25   15   20 ar
  26   16   17 ar
  27   16   21 1
  28   17   18 ar
  29   17   48 1
  30   18   19 ar
  31   18   25 1
  32   19   20 ar
  33   19   49 1
  34   20   50 1
  35   21   22 1
  36   21   23 1
  37   21   24 1
  38   25   26 2
  39   25   27 am
  40   27   28 1
  41   27   32 1
  42   28   29 1
  43   28   51 1
  44   28   52 1
  45   29   30 1
  46   29   53 1
  47   29   54 1
  48   30   31 1
  49   30   33 am
  50   31   32 1
  51   31   55 1
  52   31   56 1
  53   32   57 1
  54   32   58 1
  55   33   34 2
  56   33   35 1
  57   35   36 ar
  58   35   37 ar
  59   36   38 ar
  60   36   59 1
  61   37   40 ar
  62   38   39 ar
  63   39   40 ar
  64   39   60 1
  65   40   61 1

#	End of record

