#	Name: ASD04260001
#	Creating user name:	WinNT
#	Creation time:	15. 06. 2019 20:48

#	Modifying user name:	WinNT
#	Modification time:	15. 06. 2019 20:48

#	Program:	/corina/corina34_cracker 3.40 0067  02.08.2006

@<TRIPOS>MOLECULE
ASD04260001
  43   46    0    0    0
SMALL
NO_CHARGES


@<TRIPOS>ATOM
   1 N1            -0.0111     0.9658     0.0074 N.am    
   2 C2             1.2475     1.7155    -0.0006 C.3     
   3 C3             2.4061     0.7519    -0.0169 C.2     
   4 C4             3.0682     0.3287    -1.1081 C.2     
   5 C5             3.9466    -0.6049     0.6496 C.2     
   6 C6             5.8272    -2.2192     1.0842 C.2     
   7 C7            -2.4562     0.8680     0.0184 C.ar    
   8 C8            -4.8465     0.7753     0.0352 C.ar    
   9 C9            -6.4144    -2.5219     0.0410 C.3     
  10 C10           -7.2340    -2.8299     1.2957 C.3     
  11 C11           -4.7532    -0.6327     0.0323 C.ar    
  12 C12           -2.4471    -0.5334     0.0166 C.ar    
  13 C13           -7.2523    -2.8252    -1.2027 C.3     
  14 N14           -6.0346    -1.1070     0.0408 N.pl3   
  15 N15           -6.9263    -0.0304     0.0489 N.2     
  16 C16           -6.2709     1.0946     0.0459 C.2     
  17 C17           -3.6788     1.5405     0.0279 C.ar    
  18 N18           -3.5629    -1.2238     0.0232 N.ar    
  19 C19           -1.1873     1.6238     0.0165 C.2     
  20 O20           -1.2038     2.8394     0.0232 O.2     
  21 N21            2.9635     0.1687     1.0557 N.2     
  22 O22            4.0329    -0.5167    -0.6902 O.3     
  23 C23            4.8113    -1.4209     1.5144 C.2     
  24 S24            4.6960    -1.5187     3.2668 S.3     
  25 C25            6.0433    -2.6469     3.3254 C.2     
  26 C26            6.4902    -2.8889     2.0886 C.2     
  27 H27            0.0021    -0.0041     0.0020 H       
  28 H28            1.2883     2.3477    -0.8877 H       
  29 H29            1.3053     2.3381     0.8922 H       
  30 H30            2.8650     0.6126    -2.1301 H       
  31 H31            6.0884    -2.3222     0.0413 H       
  32 H32           -5.5161    -3.1393     0.0332 H       
  33 H33           -7.5166    -3.8826     1.2958 H       
  34 H34           -6.6370    -2.6138     2.1817 H       
  35 H35           -8.1323    -2.2125     1.3034 H       
  36 H36           -1.5020    -1.0560     0.0093 H       
  37 H37           -8.1506    -2.2078    -1.1950 H       
  38 H38           -6.6684    -2.6058    -2.0966 H       
  39 H39           -7.5349    -3.8779    -1.2026 H       
  40 H40           -6.7027     2.0845     0.0509 H       
  41 H41           -3.7205     2.6197     0.0298 H       
  42 H42            6.4478    -3.0828     4.2269 H       
  43 H43            7.3165    -3.5559     1.8920 H       
@<TRIPOS>BOND
   1    1   27 1
   2    1    2 1
   3    1   19 am
   4    2   28 1
   5    2   29 1
   6    2    3 1
   7    3   21 1
   8    3    4 2
   9    4   30 1
  10    4   22 1
  11    5   21 2
  12    5   22 1
  13    5   23 1
  14    6   23 2
  15    6   31 1
  16    6   26 1
  17    7   17 ar
  18    7   12 ar
  19    7   19 1
  20    8   16 1
  21    8   11 ar
  22    8   17 ar
  23    9   13 1
  24    9   32 1
  25    9   10 1
  26    9   14 1
  27   10   33 1
  28   10   34 1
  29   10   35 1
  30   11   14 1
  31   11   18 ar
  32   12   18 ar
  33   12   36 1
  34   13   37 1
  35   13   38 1
  36   13   39 1
  37   14   15 1
  38   15   16 2
  39   16   40 1
  40   17   41 1
  41   19   20 2
  42   23   24 1
  43   24   25 1
  44   25   42 1
  45   25   26 2
  46   26   43 1

#	End of record

