#	Name: ASD01140666
#	Creating user name:	WinNT
#	Creation time:	15. 06. 2019 19:01

#	Modifying user name:	WinNT
#	Modification time:	15. 06. 2019 19:01

#	Program:	/corina/corina34_cracker 3.40 0067  02.08.2006

@<TRIPOS>MOLECULE
ASD01140666
  58   63    0    0    0
SMALL
NO_CHARGES


@<TRIPOS>ATOM
   1 C1            -0.0173     1.4248     0.0099 C.3     
   2 O2             0.0021    -0.0041     0.0020 O.3     
   3 C3             0.6060    -0.6073    -1.0561 C.ar    
   4 C4             1.1734     0.1618    -2.0633 C.ar    
   5 C5             1.7879    -0.4477    -3.1367 C.ar    
   6 C6             1.8465    -1.8362    -3.2248 C.ar    
   7 C7             1.2752    -2.6137    -2.2174 C.ar    
   8 C8             0.6605    -1.9867    -1.1271 C.ar    
   9 C9             1.2911    -4.0885    -2.2538 C.2     
  10 N10            1.4392    -4.8930    -1.2224 N.2     
  11 N11            1.4015    -6.1172    -1.6162 N.2     
  12 C12            1.2292    -6.1674    -2.9124 C.2     
  13 C13            1.1300    -7.4123    -3.7558 C.3     
  14 O14           -0.2366    -7.8203    -3.8439 O.3     
  15 C15           -0.5018    -8.9352    -4.5743 C.ar    
  16 C16            0.5330    -9.6254    -5.1887 C.ar    
  17 C17            0.2622   -10.7589    -5.9311 C.ar    
  18 C18           -1.0388   -11.2061    -6.0631 C.ar    
  19 C19           -2.0746   -10.5193    -5.4514 C.ar    
  20 F20           -3.3457   -10.9581    -5.5816 F       
  21 C21           -1.8068    -9.3878    -4.7018 C.ar    
  22 N22            1.1566    -4.8896    -3.3520 N.pl3   
  23 C23            0.9732    -4.4115    -4.7268 C.3     
  24 C24            2.1430    -3.5067    -5.0365 C.2     
  25 C25            3.0359    -3.6482    -6.0458 C.2     
  26 N26            3.9220    -2.6337    -5.9495 N.2     
  27 C27            3.6061    -1.8829    -4.9323 C.2     
  28 N28            2.4893    -2.3908    -4.3371 N.pl3   
  29 C29            3.0397    -4.7213    -7.0686 C.2     
  30 N30            2.1801    -5.7030    -7.1681 N.2     
  31 O31            2.4622    -6.4093    -8.1129 O.3     
  32 C32            3.5538    -5.9405    -8.7257 C.2     
  33 N33            3.9290    -4.8661    -8.0775 N.2     
  34 C34            4.2235    -6.5335    -9.9385 C.3     
  35 C35            4.6724    -7.9623    -9.6257 C.3     
  36 C36            3.2366    -6.5533   -11.1074 C.3     
  37 H37            1.0053     1.8021     0.0021 H       
  38 H38           -0.5445     1.7859    -0.8732 H       
  39 H39           -0.5275     1.7763     0.9067 H       
  40 H40            1.1331     1.2396    -2.0060 H       
  41 H41            2.2273     0.1571    -3.9162 H       
  42 H42            0.2231    -2.5833    -0.3402 H       
  43 H43            1.5126    -7.2055    -4.7553 H       
  44 H44            1.7182    -8.2083    -3.2991 H       
  45 H45            1.5500    -9.2766    -5.0870 H       
  46 H46            1.0682   -11.2957    -6.4092 H       
  47 H47           -1.2482   -12.0921    -6.6442 H       
  48 H48           -2.6133    -8.8548    -4.2203 H       
  49 H49            0.9628    -5.2557    -5.4162 H       
  50 H50            0.0401    -3.8537    -4.8056 H       
  51 H51            4.1423    -1.0016    -4.6125 H       
  52 H52            5.0912    -5.9303   -10.2057 H       
  53 H53            5.1568    -8.3912   -10.5029 H       
  54 H54            5.3755    -7.9482    -8.7929 H       
  55 H55            3.8047    -8.5655    -9.3584 H       
  56 H56            2.9167    -5.5354   -11.3303 H       
  57 H57            3.7209    -6.9823   -11.9847 H       
  58 H58            2.3689    -7.1565   -10.8402 H       
@<TRIPOS>BOND
   1    1    2 1
   2    1   37 1
   3    1   38 1
   4    1   39 1
   5    2    3 1
   6    3    8 ar
   7    3    4 ar
   8    4    5 ar
   9    4   40 1
  10    5    6 ar
  11    5   41 1
  12    6   28 1
  13    6    7 ar
  14    7    8 ar
  15    7    9 1
  16    8   42 1
  17    9   22 1
  18    9   10 2
  19   10   11 1
  20   11   12 2
  21   12   13 1
  22   12   22 1
  23   13   14 1
  24   13   43 1
  25   13   44 1
  26   14   15 1
  27   15   21 ar
  28   15   16 ar
  29   16   17 ar
  30   16   45 1
  31   17   18 ar
  32   17   46 1
  33   18   19 ar
  34   18   47 1
  35   19   20 1
  36   19   21 ar
  37   21   48 1
  38   22   23 1
  39   23   24 1
  40   23   49 1
  41   23   50 1
  42   24   28 1
  43   24   25 2
  44   25   26 1
  45   25   29 1
  46   26   27 2
  47   27   28 1
  48   27   51 1
  49   29   33 1
  50   29   30 2
  51   30   31 1
  52   31   32 1
  53   32   33 2
  54   32   34 1
  55   34   35 1
  56   34   36 1
  57   34   52 1
  58   35   53 1
  59   35   54 1
  60   35   55 1
  61   36   56 1
  62   36   57 1
  63   36   58 1

#	End of record

