#	Name: ASD05430260
#	Creating user name:	WinNT
#	Creation time:	15. 06. 2019 21:00

#	Modifying user name:	WinNT
#	Modification time:	15. 06. 2019 21:00

#	Program:	/corina/corina34_cracker 3.40 0067  02.08.2006

@<TRIPOS>MOLECULE
ASD05430260
  75   81    0    0    0
SMALL
NO_CHARGES


@<TRIPOS>ATOM
   1 C1             0.5579     0.3105    -1.1862 C.ar    
   2 C2             0.0516    -0.1663     0.0203 C.ar    
   3 C3             0.7546     0.0484     1.1964 C.ar    
   4 C4             1.9541     0.7339     1.1688 C.ar    
   5 C5             2.4563     1.2076    -0.0294 C.ar    
   6 C6             1.7616     0.9971    -1.2056 C.ar    
   7 C7             4.9858     0.3339     1.4466 C.3     
   8 C8             4.5323     1.7644     1.2578 C.3     
   9 C9             3.7638     1.9549    -0.0528 C.3     
  10 C10            4.3691    -0.4693     2.5769 C.3     
  11 C11            4.1352     0.3179     3.8740 C.3     
  12 N12            3.3577     1.4997     3.5062 N.pl3   
  13 C13            3.6570     2.2525     2.3884 C.2     
  14 N14            3.0921     3.4026     2.4936 N.2     
  15 N15           -1.1673    -0.8619     0.0461 N.pl3   
  16 C16           -1.3799    -2.1141     0.5614 C.2     
  17 C17           -2.6845    -2.3945     0.3793 C.2     
  18 N18           -3.2570    -1.3458    -0.2299 N.2     
  19 C19           -2.3596    -0.4190    -0.4295 C.2     
  20 C20           -3.3807    -3.6667     0.7892 C.3     
  21 C21            2.2124     2.1141     4.1666 C.3     
  22 O22            2.3647     3.4726     3.7116 O.3     
  23 C23            0.9125     1.5373     3.6679 C.ar    
  24 O24           -0.1242     0.0981    -2.3428 O.3     
  25 C25            2.3303     2.0241     5.6867 C.3     
  26 C26            0.4443     0.3428     4.1828 C.ar    
  27 C27           -1.0060     1.6781     2.2422 C.ar    
  28 C28            0.1864     2.2059     2.7000 C.ar    
  29 C29           -1.4731     0.4790     2.7531 C.ar    
  30 F30           -2.6386    -0.0379     2.3064 F       
  31 C31            0.4553     0.6158    -3.5421 C.3     
  32 C32           -0.7476    -0.1871     3.7263 C.ar    
  33 C33            4.6084     1.4869    -1.2415 C.3     
  34 C34            5.7881     2.6636     1.2289 C.3     
  35 C35            6.7086     2.2314     0.0867 C.3     
  36 C36            5.9091     2.2590    -1.1962 C.2     
  37 O37            6.2880     2.8809    -2.1559 O.2     
  38 C38            3.1656    -1.3271     2.1887 C.3     
  39 S39            4.2724    -2.6029     1.5290 S.o2    
  40 C40            5.1536    -1.7618     2.8687 C.3     
  41 O41            3.8648    -3.9193     1.8783 O.2     
  42 O42            4.7837    -2.2884     0.2423 O.2     
  43 H43            0.3644    -0.3198     2.1338 H       
  44 H44            2.5006     0.9004     2.0854 H       
  45 H45            2.1566     1.3680    -2.1398 H       
  46 H46            4.8350    -0.2167     0.5031 H       
  47 H47            6.0845     0.3327     1.5897 H       
  48 H48            3.5517     3.0222    -0.1801 H       
  49 H49            3.5760    -0.2984     4.5768 H       
  50 H50            5.0910     0.6103     4.3051 H       
  51 H51           -0.6426    -2.7534     1.0241 H       
  52 H52           -2.5346     0.5370    -0.9005 H       
  53 H53           -3.7652    -3.5599     1.8035 H       
  54 H54           -4.2069    -3.8650     0.1065 H       
  55 H55           -2.6735    -4.4954     0.7541 H       
  56 H56            3.2341     2.5391     6.0122 H       
  57 H57            1.4599     2.4917     6.1469 H       
  58 H58            2.3810     0.9771     5.9858 H       
  59 H59            1.0103    -0.1766     4.9419 H       
  60 H60           -1.5729     2.2005     1.4858 H       
  61 H61            0.5510     3.1412     2.3016 H       
  62 H62           -0.1883     0.3776    -4.3889 H       
  63 H63            0.5593     1.6976    -3.4578 H       
  64 H64            1.4370     0.1672    -3.6943 H       
  65 H65           -1.1129    -1.1206     4.1282 H       
  66 H66            4.8092     0.4200    -1.1625 H       
  67 H67            4.0894     1.6906    -2.1775 H       
  68 H68            5.4757     3.6956     1.0861 H       
  69 H69            6.3041     2.5608     2.1833 H       
  70 H70            7.5409     2.9351     0.0093 H       
  71 H71            7.1020     1.2330     0.2694 H       
  72 H72            2.5868    -1.6635     3.0528 H       
  73 H73            2.5137    -0.8919     1.4392 H       
  74 H74            6.2210    -1.6478     2.6921 H       
  75 H75            4.9199    -2.1590     3.8588 H       
@<TRIPOS>BOND
   1    1    2 ar
   2    1    6 ar
   3    1   24 1
   4    2    3 ar
   5    2   15 1
   6    3    4 ar
   7    3   43 1
   8    4    5 ar
   9    4   44 1
  10    5    6 ar
  11    5    9 1
  12    6   45 1
  13    7    8 1
  14    7   10 1
  15    7   46 1
  16    7   47 1
  17    8    9 1
  18    8   34 1
  19    8   13 1
  20    9   33 1
  21    9   48 1
  22   10   11 1
  23   10   38 1
  24   10   40 1
  25   11   12 1
  26   11   49 1
  27   11   50 1
  28   12   13 1
  29   12   21 1
  30   13   14 2
  31   14   22 1
  32   15   16 1
  33   15   19 1
  34   16   17 2
  35   16   51 1
  36   17   18 1
  37   17   20 1
  38   18   19 2
  39   19   52 1
  40   20   53 1
  41   20   54 1
  42   20   55 1
  43   21   22 1
  44   21   23 1
  45   21   25 1
  46   23   26 ar
  47   23   28 ar
  48   24   31 1
  49   25   56 1
  50   25   57 1
  51   25   58 1
  52   26   32 ar
  53   26   59 1
  54   27   28 ar
  55   27   29 ar
  56   27   60 1
  57   28   61 1
  58   29   30 1
  59   29   32 ar
  60   31   62 1
  61   31   63 1
  62   31   64 1
  63   32   65 1
  64   33   36 1
  65   33   66 1
  66   33   67 1
  67   34   35 1
  68   34   68 1
  69   34   69 1
  70   35   36 1
  71   35   70 1
  72   35   71 1
  73   36   37 2
  74   38   39 1
  75   38   72 1
  76   38   73 1
  77   39   40 1
  78   39   41 2
  79   39   42 2
  80   40   74 1
  81   40   75 1

#	End of record

