#	Name: ASD01231345
#	Creating user name:	WinNT
#	Creation time:	15. 06. 2019 19:15

#	Modifying user name:	WinNT
#	Modification time:	15. 06. 2019 19:15

#	Program:	/corina/corina34_cracker 3.40 0067  02.08.2006

@<TRIPOS>MOLECULE
ASD01231345
  50   52    0    0    0
SMALL
NO_CHARGES


@<TRIPOS>ATOM
   1 C1            -3.4811     1.0827     1.4455 C.3     
   2 C2            -2.9992    -0.3693     1.4686 C.3     
   3 C3            -4.1980    -1.3071     1.3125 C.3     
   4 S4            -1.8362    -0.6423     0.1035 S.o2    
   5 O5            -2.5044    -0.5485    -1.1471 O.2     
   6 O6            -0.6197     0.0536     0.3381 O.2     
   7 N7            -1.4225    -2.2410     0.2265 N.am    
   8 C8            -0.6934    -2.7205     1.4033 C.3     
   9 C9            -1.1772    -4.1330     1.7943 C.3     
  10 C10           -0.1900    -5.0436     1.0338 C.3     
  11 C11            1.0661    -4.2153     0.8686 C.ar    
  12 C12            2.3599    -4.5993     0.5572 C.ar    
  13 C13            3.3609    -3.6530     0.4583 C.ar    
  14 C14            3.0716    -2.3178     0.6707 C.ar    
  15 C15            1.7821    -1.9331     0.9813 C.ar    
  16 C16            0.7769    -2.8805     1.0809 C.ar    
  17 C17            4.7673    -4.0754     0.1197 C.3     
  18 O18            4.9410    -4.0595    -1.2986 O.3     
  19 C19            6.1626    -4.4174    -1.7746 C.ar    
  20 C20            6.4011    -4.4243    -3.1414 C.ar    
  21 C21            7.6435    -4.7885    -3.6227 C.ar    
  22 C22            8.6491    -5.1465    -2.7436 C.ar    
  23 C23            8.4139    -5.1409    -1.3813 C.ar    
  24 C24            7.1748    -4.7710    -0.8945 C.ar    
  25 C25            5.3053    -4.0352    -4.1001 C.3     
  26 F26            5.7824    -4.1192    -5.4126 F       
  27 F27            4.2185    -4.9019    -3.9427 F       
  28 F28            4.8979    -2.7234    -3.8351 F       
  29 H29           -4.1799     1.2467     2.2657 H       
  30 H30           -2.6270     1.7507     1.5566 H       
  31 H31           -3.9796     1.2850     0.4975 H       
  32 H32           -2.5007    -0.5716     2.4166 H       
  33 H33           -3.8472    -2.3367     1.2432 H       
  34 H34           -4.8546    -1.2043     2.1765 H       
  35 H35           -4.7463    -1.0482     0.4067 H       
  36 H36           -1.6629    -2.8600    -0.4805 H       
  37 H37           -0.8265    -2.0309     2.2368 H       
  38 H38           -1.0956    -4.2865     2.8704 H       
  39 H39           -2.1993    -4.3004     1.4544 H       
  40 H40            0.0222    -5.9406     1.6156 H       
  41 H41           -0.5971    -5.3118     0.0589 H       
  42 H42            2.5867    -5.6421     0.3916 H       
  43 H43            3.8533    -1.5766     0.5941 H       
  44 H44            1.5569    -0.8899     1.1470 H       
  45 H45            5.4746    -3.3857     0.5802 H       
  46 H46            4.9447    -5.0828     0.4962 H       
  47 H47            7.8296    -4.7940    -4.6865 H       
  48 H48            9.6197    -5.4313    -3.1219 H       
  49 H49            9.2007    -5.4213    -0.6968 H       
  50 H50            6.9930    -4.7622     0.1700 H       
@<TRIPOS>BOND
   1    1    2 1
   2    1   29 1
   3    1   30 1
   4    1   31 1
   5    2    3 1
   6    2    4 1
   7    2   32 1
   8    3   33 1
   9    3   34 1
  10    3   35 1
  11    4    5 2
  12    4    6 2
  13    4    7 am
  14    7    8 1
  15    7   36 1
  16    8    9 1
  17    8   16 1
  18    8   37 1
  19    9   10 1
  20    9   38 1
  21    9   39 1
  22   10   11 1
  23   10   40 1
  24   10   41 1
  25   11   12 ar
  26   11   16 ar
  27   12   13 ar
  28   12   42 1
  29   13   14 ar
  30   13   17 1
  31   14   15 ar
  32   14   43 1
  33   15   16 ar
  34   15   44 1
  35   17   18 1
  36   17   45 1
  37   17   46 1
  38   18   19 1
  39   19   20 ar
  40   19   24 ar
  41   20   21 ar
  42   20   25 1
  43   21   22 ar
  44   21   47 1
  45   22   23 ar
  46   22   48 1
  47   23   24 ar
  48   23   49 1
  49   24   50 1
  50   25   26 1
  51   25   27 1
  52   25   28 1

#	End of record

