#	Name: ASD01890170
#	Creating user name:	WinNT
#	Creation time:	15. 06. 2019 19:50

#	Modifying user name:	WinNT
#	Modification time:	15. 06. 2019 19:50

#	Program:	/corina/corina34_cracker 3.40 0067  02.08.2006

@<TRIPOS>MOLECULE
ASD01890170
  45   46    0    0    0
SMALL
NO_CHARGES


@<TRIPOS>ATOM
   1 C1            -0.0264     1.4096    -0.0152 C.2     
   2 C2            -0.0034    -0.0078    -0.0400 C.2     
   3 C3             1.1756    -0.6630    -0.1147 C.2     
   4 C4             2.4508     0.1048    -0.3496 C.3     
   5 C5             3.0824     0.4684     0.9957 C.3     
   6 O6             1.0155     2.0337     0.0549 O.2     
   7 O7            -1.2035     2.0664    -0.0749 O.3     
   8 C8             1.2146    -2.1246     0.0331 C.ar    
   9 C9             0.5938    -2.9436    -0.9176 C.ar    
  10 C10            0.6336    -4.3121    -0.7747 C.ar    
  11 C11            1.2885    -4.8812     0.3117 C.ar    
  12 C12            1.9063    -4.0724     1.2589 C.ar    
  13 C13            1.8776    -2.7030     1.1220 C.ar    
  14 O14            1.3245    -6.2312     0.4482 O.3     
  15 C15            2.0141    -6.7499     1.5873 C.3     
  16 C16            4.3576     1.2363     0.7608 C.ar    
  17 C17            4.3263     2.6150     0.6648 C.ar    
  18 C18            5.4955     3.3198     0.4493 C.ar    
  19 C19            6.6975     2.6452     0.3298 C.ar    
  20 C20            6.7282     1.2654     0.4259 C.ar    
  21 C21            5.5591     0.5621     0.6470 C.ar    
  22 Cl22           8.1664     3.5297     0.0586 Cl      
  23 C23           -1.1520     3.4942    -0.0453 C.3     
  24 C24           -2.5725     4.0575    -0.1217 C.3     
  25 H25           -0.9285    -0.5636     0.0008 H       
  26 H26            3.1449    -0.5101    -0.9225 H       
  27 H27            2.2292     1.0161    -0.9051 H       
  28 H28            2.3883     1.0834     1.5685 H       
  29 H29            3.3040    -0.4428     1.5512 H       
  30 H30            0.0842    -2.5024    -1.7614 H       
  31 H31            0.1550    -4.9447    -1.5075 H       
  32 H32            2.4134    -4.5195     2.1011 H       
  33 H33            2.3616    -2.0758     1.8560 H       
  34 H34            1.5450    -6.3759     2.4973 H       
  35 H35            1.9674    -7.8388     1.5755 H       
  36 H36            3.0559    -6.4306     1.5579 H       
  37 H37            3.3879     3.1415     0.7578 H       
  38 H38            5.4708     4.3969     0.3740 H       
  39 H39            7.6662     0.7382     0.3327 H       
  40 H40            5.5836    -0.5147     0.7265 H       
  41 H41           -0.6806     3.8216     0.8813 H       
  42 H42           -0.5721     3.8545    -0.8950 H       
  43 H43           -3.1524     3.6972     0.7280 H       
  44 H44           -2.5332     5.1465    -0.0991 H       
  45 H45           -3.0439     3.7300    -1.0483 H       
@<TRIPOS>BOND
   1    1    2 1
   2    1    6 2
   3    1    7 1
   4    2    3 2
   5    2   25 1
   6    3    4 1
   7    3    8 1
   8    4    5 1
   9    4   26 1
  10    4   27 1
  11    5   16 1
  12    5   28 1
  13    5   29 1
  14    7   23 1
  15    8    9 ar
  16    8   13 ar
  17    9   10 ar
  18    9   30 1
  19   10   11 ar
  20   10   31 1
  21   11   12 ar
  22   11   14 1
  23   12   13 ar
  24   12   32 1
  25   13   33 1
  26   14   15 1
  27   15   34 1
  28   15   35 1
  29   15   36 1
  30   16   17 ar
  31   16   21 ar
  32   17   18 ar
  33   17   37 1
  34   18   19 ar
  35   18   38 1
  36   19   20 ar
  37   19   22 1
  38   20   21 ar
  39   20   39 1
  40   21   40 1
  41   23   24 1
  42   23   41 1
  43   23   42 1
  44   24   43 1
  45   24   44 1
  46   24   45 1

#	End of record

