#	Name: ASD01883503
#	Creating user name:	WinNT
#	Creation time:	15. 06. 2019 19:46

#	Modifying user name:	WinNT
#	Modification time:	15. 06. 2019 19:46

#	Program:	/corina/corina34_cracker 3.40 0067  02.08.2006

@<TRIPOS>MOLECULE
ASD01883503
  44   46    0    0    0
SMALL
NO_CHARGES


@<TRIPOS>ATOM
   1 N1            -0.0162     1.3417     0.0094 N.am    
   2 C2             0.0021    -0.0041     0.0020 C.2     
   3 C3            -1.2159    -0.7274     0.0102 C.2     
   4 C4            -2.4262    -0.0109     0.0261 C.2     
   5 C5            -2.3786     1.3974     0.0332 C.2     
   6 C6            -1.1851     2.0327     0.0299 C.2     
   7 O7             1.0657    -0.6000    -0.0122 O.2     
   8 C8            -1.2149    -2.1593     0.0021 C.1     
   9 N9            -1.2142    -3.2953    -0.0044 N.1     
  10 C10            1.2513     2.0763     0.0013 C.3     
  11 C11            1.6788     2.3398    -1.4440 C.3     
  12 C12            3.0025     3.1070    -1.4525 C.3     
  13 C13            4.1050     2.2284    -0.8581 C.3     
  14 C14            3.3670     3.4792    -2.8911 C.3     
  15 C15           -3.7215    -0.7207     0.0347 C.ar    
  16 C16           -4.5728    -0.6177     1.1375 C.ar    
  17 C17           -5.7797    -1.2814     1.1410 C.ar    
  18 C18           -6.1640    -2.0572     0.0548 C.ar    
  19 C19           -5.3096    -2.1588    -1.0495 C.ar    
  20 C20           -4.1067    -1.4956    -1.0629 C.ar    
  21 C21           -6.8728    -1.3424     2.1846 C.3     
  22 C22           -7.9444    -2.2547     1.5656 C.3     
  23 N23           -7.4113    -2.6403     0.2566 N.pl3   
  24 H24           -3.2949     1.9689     0.0450 H       
  25 H25           -1.1610     3.1124     0.0354 H       
  26 H26            1.1243     3.0257     0.5214 H       
  27 H27            2.0168     1.4857     0.5046 H       
  28 H28            1.8057     1.3903    -1.9642 H       
  29 H29            0.9133     2.9303    -1.9474 H       
  30 H30            2.9004     4.0143    -0.8572 H       
  31 H31            4.2071     1.3210    -1.4534 H       
  32 H32            5.0481     2.7749    -0.8642 H       
  33 H33            3.8454     1.9632     0.1668 H       
  34 H34            2.5815     4.1051    -3.3146 H       
  35 H35            4.3100     4.0258    -2.8972 H       
  36 H36            3.4691     2.5719    -3.4864 H       
  37 H37           -4.2843    -0.0176     1.9878 H       
  38 H38           -5.6000    -2.7597    -1.8986 H       
  39 H39           -3.4540    -1.5799    -1.9192 H       
  40 H40           -6.4922    -1.7757     3.1095 H       
  41 H41           -7.2795    -0.3480     2.3683 H       
  42 H42           -8.0948    -3.1372     2.1874 H       
  43 H43           -8.8814    -1.7108     1.4469 H       
  44 H44           -7.8626    -3.2187    -0.3780 H       
@<TRIPOS>BOND
   1    1    2 am
   2    1   10 1
   3    1    6 1
   4    2    3 1
   5    2    7 2
   6    3    4 2
   7    3    8 1
   8    4    5 1
   9    4   15 1
  10    5    6 2
  11    5   24 1
  12    6   25 1
  13    8    9 3
  14   10   11 1
  15   10   26 1
  16   10   27 1
  17   11   12 1
  18   11   28 1
  19   11   29 1
  20   12   13 1
  21   12   14 1
  22   12   30 1
  23   13   31 1
  24   13   32 1
  25   13   33 1
  26   14   34 1
  27   14   35 1
  28   14   36 1
  29   15   16 ar
  30   15   20 ar
  31   16   17 ar
  32   16   37 1
  33   17   18 ar
  34   17   21 1
  35   18   19 ar
  36   18   23 1
  37   19   20 ar
  38   19   38 1
  39   20   39 1
  40   21   22 1
  41   21   40 1
  42   21   41 1
  43   22   23 1
  44   22   42 1
  45   22   43 1
  46   23   44 1

#	End of record

