#	Name: ASD04590536
#	Creating user name:	WinNT
#	Creation time:	15. 06. 2019 20:51

#	Modifying user name:	WinNT
#	Modification time:	15. 06. 2019 20:51

#	Program:	/corina/corina34_cracker 3.40 0067  02.08.2006

@<TRIPOS>MOLECULE
ASD04590536
  52   55    0    0    0
SMALL
NO_CHARGES


@<TRIPOS>ATOM
   1 C1            -0.0169     1.3919     0.0097 C.ar    
   2 C2             0.0021    -0.0041     0.0020 C.ar    
   3 C3            -2.4013    -0.0383     0.0248 C.ar    
   4 C4            -2.4140     1.3672     0.0440 C.ar    
   5 C5            -1.2194     2.0733     0.0306 C.ar    
   6 N6            -3.6930    -0.4516     0.0441 N.2     
   7 C7            -4.4887     0.5897     0.0735 C.2     
   8 N8            -3.7459     1.7405     0.0747 N.pl3   
   9 C9            -5.9649     0.5309     0.1011 C.2     
  10 C10           -6.7501    -0.6450     0.1008 C.2     
  11 C11           -8.0527    -0.2722     0.1308 C.2     
  12 N12           -8.0970     1.0859     0.1494 N.pl3   
  13 N13           -6.7813     1.5657     0.1361 N.2     
  14 N14           -6.2665    -1.9638     0.0738 N.am    
  15 C15           -7.1301    -2.9985     0.0770 C.2     
  16 O16           -8.3250    -2.7911     0.1031 O.2     
  17 C17           -1.1781    -0.7176     0.0095 C.ar    
  18 C18           -6.6114    -4.4131     0.0480 C.3     
  19 C19           -7.7899    -5.3888     0.0581 C.3     
  20 O20            1.1915    -0.6643    -0.0133 O.3     
  21 C21            1.1408    -2.0924    -0.0205 C.3     
  22 C22           -7.2633    -6.8250     0.0287 C.3     
  23 C23           -6.3863    -7.0718     1.2579 C.3     
  24 C24           -5.2078    -6.0962     1.2478 C.3     
  25 C25           -5.7344    -4.6600     1.2772 C.3     
  26 N26           -5.8806    -8.4508     1.2296 N.3     
  27 O27            1.1536     2.0847     0.0022 O.3     
  28 C28            1.0634     3.5109     0.0108 C.3     
  29 H29           -1.2293     3.1532     0.0368 H       
  30 H30           -4.0893     2.6474     0.0936 H       
  31 H31           -8.9043    -0.9364     0.1381 H       
  32 H32           -8.9006     1.6288     0.1719 H       
  33 H33           -5.3110    -2.1297     0.0530 H       
  34 H34           -1.1582    -1.7974     0.0031 H       
  35 H35           -6.0214    -4.5653    -0.8558 H       
  36 H36           -8.3799    -5.2366     0.9619 H       
  37 H37           -8.4147    -5.2129    -0.8176 H       
  38 H38            0.6232    -2.4420     0.8728 H       
  39 H39            0.6056    -2.4325    -0.9070 H       
  40 H40            2.1548    -2.4919    -0.0327 H       
  41 H41           -8.1028    -7.5201     0.0359 H       
  42 H42           -6.6733    -6.9772    -0.8751 H       
  43 H43           -6.9763    -6.9196     2.1616 H       
  44 H44           -4.5830    -6.2721     2.1235 H       
  45 H45           -4.6178    -6.2484     0.3440 H       
  46 H46           -4.8948    -3.9649     1.2700 H       
  47 H47           -6.3244    -4.5078     2.1810 H       
  48 H48           -5.2981    -8.6388     2.0318 H       
  49 H49           -6.6395    -9.1131     1.1707 H       
  50 H50            0.5192     3.8458    -0.8723 H       
  51 H51            0.5362     3.8362     0.9076 H       
  52 H52            2.0660     3.9384     0.0035 H       
@<TRIPOS>BOND
   1    1    2 ar
   2    1   27 1
   3    1    5 ar
   4    2   17 ar
   5    2   20 1
   6    3    4 ar
   7    3    6 1
   8    3   17 ar
   9    4    5 ar
  10    4    8 1
  11    5   29 1
  12    6    7 2
  13    7    8 1
  14    7    9 1
  15    8   30 1
  16    9   10 1
  17    9   13 2
  18   10   11 2
  19   10   14 1
  20   11   12 1
  21   11   31 1
  22   12   13 1
  23   12   32 1
  24   14   15 am
  25   14   33 1
  26   15   16 2
  27   15   18 1
  28   17   34 1
  29   18   19 1
  30   18   25 1
  31   18   35 1
  32   19   22 1
  33   19   36 1
  34   19   37 1
  35   20   21 1
  36   21   38 1
  37   21   39 1
  38   21   40 1
  39   22   23 1
  40   22   41 1
  41   22   42 1
  42   23   24 1
  43   23   26 1
  44   23   43 1
  45   24   25 1
  46   24   44 1
  47   24   45 1
  48   25   46 1
  49   25   47 1
  50   26   48 1
  51   26   49 1
  52   27   28 1
  53   28   50 1
  54   28   51 1
  55   28   52 1

#	End of record

