#	Name: ASD05213039
#	Creating user name:	WinNT
#	Creation time:	15. 06. 2019 20:57

#	Modifying user name:	WinNT
#	Modification time:	15. 06. 2019 20:57

#	Program:	/corina/corina34_cracker 3.40 0067  02.08.2006

@<TRIPOS>MOLECULE
ASD05213039
  40   44    0    0    0
SMALL
NO_CHARGES


@<TRIPOS>ATOM
   1 S1            -0.0218     1.7577     0.0117 S.3     
   2 C2             0.0021    -0.0041     0.0020 C.2     
   3 N3            -1.0462    -0.7545     0.0080 N.2     
   4 C4            -0.8653    -2.0902    -0.0017 C.ar    
   5 C5             0.4840    -2.4559    -0.0172 C.ar    
   6 S6             1.4587    -0.9881    -0.0248 S.3     
   7 C7            -1.8378    -3.1127     0.0015 C.ar    
   8 C8            -1.4601    -4.4315    -0.0100 C.ar    
   9 C9            -0.1169    -4.7815    -0.0254 C.ar    
  10 C10            0.8501    -3.7995    -0.0295 C.ar    
  11 C11            1.7090     2.0873    -0.0030 C.2     
  12 N12            2.3024     3.3194    -0.0021 N.pl3   
  13 C13            3.6498     3.0808    -0.0163 C.2     
  14 N14            3.8144     1.7876    -0.0248 N.2     
  15 N15            2.6732     1.1967    -0.0113 N.2     
  16 C16            4.7410     4.1201    -0.0215 C.3     
  17 Cl17           0.3446    -6.4550    -0.0394 Cl      
  18 C18            1.6625     4.5687     0.0103 C.ar    
  19 C19            1.8085     5.4124     1.1022 C.ar    
  20 C20            1.1778     6.6417     1.1158 C.ar    
  21 C21            0.3972     7.0360     0.0396 C.ar    
  22 C22            0.2515     6.1937    -1.0570 C.ar    
  23 C23            0.8883     4.9628    -1.0717 C.ar    
  24 O24           -0.2232     8.2478     0.0740 O.3     
  25 C25           -0.6911     8.7670    -1.1755 C.3     
  26 C26           -1.4252     7.6429    -1.9189 C.3     
  27 O27           -0.5041     6.5665    -2.1260 O.3     
  28 H28           -2.8866    -2.8553     0.0134 H       
  29 H29           -2.2145    -5.2044    -0.0067 H       
  30 H30            1.8949    -4.0728    -0.0414 H       
  31 H31            5.0140     4.3656     1.0048 H       
  32 H32            5.6129     3.7289    -0.5458 H       
  33 H33            4.3854     5.0177    -0.5275 H       
  34 H34            2.4154     5.1080     1.9421 H       
  35 H35            1.2927     7.2968     1.9668 H       
  36 H36            0.7747     4.3063    -1.9218 H       
  37 H37           -1.3750     9.5965    -0.9958 H       
  38 H38            0.1551     9.1100    -1.7709 H       
  39 H39           -2.2677     7.2958    -1.3208 H       
  40 H40           -1.7830     8.0107    -2.8805 H       
@<TRIPOS>BOND
   1    1    2 1
   2    1   11 1
   3    2    3 2
   4    2    6 1
   5    3    4 1
   6    4    5 ar
   7    4    7 ar
   8    5    6 1
   9    5   10 ar
  10    7    8 ar
  11    7   28 1
  12    8    9 ar
  13    8   29 1
  14    9   10 ar
  15    9   17 1
  16   10   30 1
  17   11   12 1
  18   11   15 2
  19   12   13 1
  20   12   18 1
  21   13   14 2
  22   13   16 1
  23   14   15 1
  24   16   31 1
  25   16   32 1
  26   16   33 1
  27   18   19 ar
  28   18   23 ar
  29   19   20 ar
  30   19   34 1
  31   20   21 ar
  32   20   35 1
  33   21   22 ar
  34   21   24 1
  35   22   23 ar
  36   22   27 1
  37   23   36 1
  38   24   25 1
  39   25   26 1
  40   25   37 1
  41   25   38 1
  42   26   27 1
  43   26   39 1
  44   26   40 1

#	End of record

