#	Name: ASD03091136
#	Creating user name:	WinNT
#	Creation time:	15. 06. 2019 20:30

#	Modifying user name:	WinNT
#	Modification time:	15. 06. 2019 20:30

#	Program:	/corina/corina34_cracker 3.40 0067  02.08.2006

@<TRIPOS>MOLECULE
ASD03091136
  40   42    0    0    0
SMALL
NO_CHARGES


@<TRIPOS>ATOM
   1 C1             0.9510    -0.2501    -0.9827 C.ar    
   2 C2             0.0017    -0.0034     0.0006 C.ar    
   3 C3             0.2455     0.9536     0.9764 C.ar    
   4 C4             1.4323     1.6601     0.9695 C.ar    
   5 C5             2.3814     1.4132    -0.0132 C.ar    
   6 C6             2.1373     0.4562    -0.9896 C.ar    
   7 S7             0.6444    -1.4694    -2.2172 S.o2    
   8 O8            -0.6596    -1.2124    -2.7199 O.2     
   9 O9             1.8017    -1.5062    -3.0409 O.2     
  10 N10            0.5695    -2.9352    -1.4503 N.am    
  11 N11            6.0593     3.3051     1.1030 N.3     
  12 C12            4.8064     4.0606     0.9519 C.3     
  13 C13            3.6049     3.1336     1.0502 C.3     
  14 N14            3.5842     2.1296    -0.0204 N.3     
  15 C15            4.7367     1.2251     0.0954 C.3     
  16 C16            5.8842     1.7131    -0.7763 C.3     
  17 C17            6.5856     2.9352    -0.2187 C.3     
  18 C18            6.0290     2.1931     2.0287 C.3     
  19 C19            5.1090     1.0781     1.5594 C.3     
  20 N20           -1.2013    -0.7196     0.0075 N.pl3   
  21 H21           -0.4930     1.1459     1.7406 H       
  22 H22            1.6218     2.4048     1.7284 H       
  23 H23            2.8757     0.2642    -1.7540 H       
  24 H24            0.0116    -3.6427    -1.8098 H       
  25 H25            1.0834    -3.0864    -0.6417 H       
  26 H26            4.7442     4.8136     1.7376 H       
  27 H27            4.8001     4.5549    -0.0195 H       
  28 H28            3.6309     2.6228     2.0127 H       
  29 H29            2.6938     3.7292     0.9932 H       
  30 H30            4.4318     0.2427    -0.2652 H       
  31 H31            6.6122     0.9084    -0.8783 H       
  32 H32            5.4937     1.9549    -1.7648 H       
  33 H33            6.4442     3.7705    -0.9045 H       
  34 H34            7.6515     2.7247    -0.1312 H       
  35 H35            7.0383     1.7963     2.1378 H       
  36 H36            5.6848     2.5505     2.9993 H       
  37 H37            4.1992     1.0933     2.1596 H       
  38 H38            5.6104     0.1210     1.7031 H       
  39 H39           -1.3718    -1.3880    -0.6745 H       
  40 H40           -1.8643    -0.5473     0.6943 H       
@<TRIPOS>BOND
   1    1    2 ar
   2    1    6 ar
   3    1    7 1
   4    2    3 ar
   5    2   20 1
   6    3    4 ar
   7    3   21 1
   8    4    5 ar
   9    4   22 1
  10    5    6 ar
  11    5   14 1
  12    6   23 1
  13    7    8 2
  14    7    9 2
  15    7   10 am
  16   10   24 1
  17   10   25 1
  18   11   12 1
  19   11   17 1
  20   11   18 1
  21   12   13 1
  22   12   26 1
  23   12   27 1
  24   13   14 1
  25   13   28 1
  26   13   29 1
  27   14   15 1
  28   15   16 1
  29   15   19 1
  30   15   30 1
  31   16   17 1
  32   16   31 1
  33   16   32 1
  34   17   33 1
  35   17   34 1
  36   18   19 1
  37   18   35 1
  38   18   36 1
  39   19   37 1
  40   19   38 1
  41   20   39 1
  42   20   40 1

#	End of record

