#	Name: ASD07300659
#	Creating user name:	WinNT
#	Creation time:	15. 06. 2019 21:10

#	Modifying user name:	WinNT
#	Modification time:	15. 06. 2019 21:10

#	Program:	/corina/corina34_cracker 3.40 0067  02.08.2006

@<TRIPOS>MOLECULE
ASD07300659
  30   32    0    0    0
SMALL
NO_CHARGES


@<TRIPOS>ATOM
   1 C1            -0.0035     1.3931     0.2412 C.2     
   2 C2             0.0021    -0.0041     0.0020 C.2     
   3 N3             1.1905     2.0696     0.2267 N.pl3   
   4 N4             1.1443    -0.6197    -0.2276 N.2     
   5 C5             2.3032     0.0483    -0.2397 C.2     
   6 C6             2.3489     1.3770    -0.0178 C.2     
   7 N7            -0.9640     2.2631     0.4998 N.2     
   8 C8            -0.4283     3.4757     0.6461 C.2     
   9 C9             0.9134     3.3770     0.4806 C.2     
  10 N10           -1.1858    -0.7179     0.0100 N.pl3   
  11 C11           -2.4812    -0.0313     0.1360 C.3     
  12 C12           -3.4036    -0.5303    -0.9821 C.3     
  13 O13           -3.4378    -1.9594    -0.9615 O.3     
  14 C14           -2.1743    -2.5787    -1.2141 C.3     
  15 C15           -1.1892    -2.1842    -0.1135 C.3     
  16 C16           -1.1868     4.7422     0.9487 C.3     
  17 I17            4.0834    -0.9919    -0.6106 I       
  18 Br18           2.1651     4.7905     0.5859 Br      
  19 H19            3.2962     1.8954    -0.0321 H       
  20 H20           -2.9241    -0.2581     1.1058 H       
  21 H21           -2.3372     1.0449     0.0402 H       
  22 H22           -4.4092    -0.1398    -0.8259 H       
  23 H23           -3.0253    -0.1890    -1.9457 H       
  24 H24           -2.2955    -3.6619    -1.2248 H       
  25 H25           -1.7915    -2.2449    -2.1785 H       
  26 H26           -0.1901    -2.5330    -0.3744 H       
  27 H27           -1.4998    -2.6314     0.8308 H       
  28 H28           -1.2548     4.8758     2.0283 H       
  29 H29           -0.6645     5.5922     0.5096 H       
  30 H30           -2.1896     4.6747     0.5270 H       
@<TRIPOS>BOND
   1    1    2 1
   2    1    3 1
   3    1    7 2
   4    2    4 2
   5    2   10 1
   6    3    6 1
   7    3    9 1
   8    4    5 1
   9    5    6 2
  10    5   17 1
  11    6   19 1
  12    7    8 1
  13    8    9 2
  14    8   16 1
  15    9   18 1
  16   10   11 1
  17   10   15 1
  18   11   12 1
  19   11   20 1
  20   11   21 1
  21   12   13 1
  22   12   22 1
  23   12   23 1
  24   13   14 1
  25   14   15 1
  26   14   24 1
  27   14   25 1
  28   15   26 1
  29   15   27 1
  30   16   28 1
  31   16   29 1
  32   16   30 1

#	End of record

