#	Name: ASD01150370
#	Creating user name:	WinNT
#	Creation time:	15. 06. 2019 19:04

#	Modifying user name:	WinNT
#	Modification time:	15. 06. 2019 19:04

#	Program:	/corina/corina34_cracker 3.40 0067  02.08.2006

@<TRIPOS>MOLECULE
ASD01150370
  48   50    0    0    0
SMALL
NO_CHARGES


@<TRIPOS>ATOM
   1 C1             0.2879     1.4208    -0.9118 C.ar    
   2 C2             0.3925     0.0513    -1.0585 C.ar    
   3 C3             1.1440    -0.6871    -0.1642 C.ar    
   4 C4             1.7970    -0.0538     0.8856 C.ar    
   5 C5             1.6945     1.3218     1.0358 C.ar    
   6 C6             0.9391     2.0605     0.1361 C.ar    
   7 N7             0.8335     3.4479     0.2836 N.am    
   8 C8            -0.3785     4.0286     0.2408 C.2     
   9 N9            -0.5167     5.3604     0.3791 N.am    
  10 C10            0.5709     6.1371     0.5643 C.2     
  11 C11            1.8994     5.5079     0.6127 C.2     
  12 N12            1.9907     4.2110     0.4795 N.2     
  13 O13            0.4542     7.3419     0.6894 O.2     
  14 C14           -1.8492     5.9671     0.3279 C.3     
  15 O15           -1.3662     3.3391     0.0739 O.2     
  16 N16            2.5569    -0.8025     1.7912 N.am    
  17 C17            1.9505    -1.6759     2.6193 C.2     
  18 C18            2.7765    -2.5641     3.5136 C.3     
  19 O19            0.7400    -1.7472     2.6447 O.2     
  20 C20           -2.4326     6.0160     1.7165 C.ar    
  21 C21           -2.2139     7.1200     2.5193 C.ar    
  22 C22           -2.7487     7.1654     3.7930 C.ar    
  23 C23           -3.5030     6.1057     4.2645 C.ar    
  24 C24           -3.7214     5.0011     3.4606 C.ar    
  25 C25           -3.1908     4.9593     2.1850 C.ar    
  26 Cl26          -4.1745     6.1618     5.8643 Cl      
  27 O27            3.0137     6.2626     0.7979 O.3     
  28 C28            4.2653     5.5738     0.8325 C.3     
  29 C29            4.0117    -0.6368     1.8390 C.3     
  30 H30           -0.2968     1.9955    -1.6147 H       
  31 H31           -0.1145    -0.4435    -1.8737 H       
  32 H32            1.2234    -1.7577    -0.2815 H       
  33 H33            2.2009     1.8164     1.8514 H       
  34 H34           -1.7726     6.9790    -0.0699 H       
  35 H35           -2.4952     5.3712    -0.3168 H       
  36 H36            3.3821    -1.9481     4.1783 H       
  37 H37            2.1166    -3.1976     4.1063 H       
  38 H38            3.4284    -3.1891     2.9032 H       
  39 H39           -1.6249     7.9470     2.1513 H       
  40 H40           -2.5776     8.0278     4.4202 H       
  41 H41           -4.3101     4.1736     3.8280 H       
  42 H42           -3.3613     4.0971     1.5573 H       
  43 H43            5.0710     6.2918     0.9859 H       
  44 H44            4.2607     4.8528     1.6500 H       
  45 H45            4.4189     5.0516    -0.1118 H       
  46 H46            4.2650     0.1458     2.5543 H       
  47 H47            4.4742    -1.5744     2.1475 H       
  48 H48            4.3785    -0.3586     0.8510 H       
@<TRIPOS>BOND
   1    1    2 ar
   2    1    6 ar
   3    1   30 1
   4    2    3 ar
   5    2   31 1
   6    3    4 ar
   7    3   32 1
   8    4    5 ar
   9    4   16 1
  10    5    6 ar
  11    5   33 1
  12    6    7 1
  13    7    8 am
  14    7   12 1
  15    8    9 am
  16    8   15 2
  17    9   10 am
  18    9   14 1
  19   10   11 1
  20   10   13 2
  21   11   12 2
  22   11   27 1
  23   14   20 1
  24   14   34 1
  25   14   35 1
  26   16   17 am
  27   16   29 1
  28   17   18 1
  29   17   19 2
  30   18   36 1
  31   18   37 1
  32   18   38 1
  33   20   21 ar
  34   20   25 ar
  35   21   22 ar
  36   21   39 1
  37   22   23 ar
  38   22   40 1
  39   23   24 ar
  40   23   26 1
  41   24   25 ar
  42   24   41 1
  43   25   42 1
  44   27   28 1
  45   28   43 1
  46   28   44 1
  47   28   45 1
  48   29   46 1
  49   29   47 1
  50   29   48 1

#	End of record

