#	Name: ASD04840009
#	Creating user name:	WinNT
#	Creation time:	15. 06. 2019 20:52

#	Modifying user name:	WinNT
#	Modification time:	15. 06. 2019 20:52

#	Program:	/corina/corina34_cracker 3.40 0067  02.08.2006

@<TRIPOS>MOLECULE
ASD04840009
  49   52    0    0    0
SMALL
NO_CHARGES


@<TRIPOS>ATOM
   1 O1            -0.0797     1.2987    -1.3014 O.3     
   2 C2            -0.0463    -0.0266    -1.0602 C.2     
   3 O3             1.0134    -0.5765    -0.8341 O.2     
   4 C4            -1.2954    -0.8093    -1.0705 C.ar    
   5 C5            -2.5270    -0.1654    -1.2145 C.ar    
   6 C6            -3.6910    -0.9032    -1.2238 C.ar    
   7 C7            -3.6463    -2.2812    -1.0905 C.ar    
   8 C8            -2.4359    -2.9305    -0.9469 C.ar    
   9 C9            -1.2542    -2.2051    -0.9416 C.ar    
  10 O10           -0.0647    -2.8415    -0.8006 O.3     
  11 C11           -0.1075    -4.2410    -0.5149 C.3     
  12 C12            1.2937    -4.7957    -0.5095 C.ar    
  13 C13            2.3594    -3.9384    -0.7459 C.ar    
  14 C14            3.6536    -4.4349    -0.7440 C.ar    
  15 N15            4.7397    -3.6031    -0.9766 N.pl3   
  16 C16            4.5348    -2.2723    -1.3194 C.ar    
  17 C17            3.5540    -1.9321    -2.2423 C.ar    
  18 C18            3.3523    -0.6095    -2.5812 C.ar    
  19 C19            4.1233     0.3879    -2.0058 C.ar    
  20 C20            5.1007     0.0705    -1.0880 C.ar    
  21 C21            5.3143    -1.2634    -0.7304 C.ar    
  22 C22            6.3572    -1.6100     0.2506 C.2     
  23 O23            6.5758    -2.7749     0.5190 O.2     
  24 O24            7.0690    -0.6353     0.8502 O.3     
  25 C25            3.8321    -5.8169    -0.4968 C.ar    
  26 C26            2.6924    -6.6235    -0.2647 C.ar    
  27 N27            1.4723    -6.0752    -0.2761 N.ar    
  28 C28            2.8664    -7.9966    -0.0189 C.ar    
  29 C29            4.1199    -8.5273    -0.0077 C.ar    
  30 C30            5.2391    -7.7306    -0.2364 C.ar    
  31 C31            5.1084    -6.3961    -0.4785 C.ar    
  32 H32            0.7648     1.7695    -1.2840 H       
  33 H33           -2.5668     0.9089    -1.3181 H       
  34 H34           -4.6425    -0.4046    -1.3352 H       
  35 H35           -4.5635    -2.8512    -1.0985 H       
  36 H36           -2.4095    -4.0052    -0.8431 H       
  37 H37           -0.5644    -4.3985     0.4621 H       
  38 H38           -0.6968    -4.7498    -1.2778 H       
  39 H39            2.1811    -2.8894    -0.9309 H       
  40 H40            5.6420    -3.9508    -0.8998 H       
  41 H41            2.9488    -2.7033    -2.6954 H       
  42 H42            2.5889    -0.3502    -3.2998 H       
  43 H43            3.9573     1.4197    -2.2784 H       
  44 H44            5.6986     0.8520    -0.6428 H       
  45 H45            7.7425    -0.9117     1.4867 H       
  46 H46            2.0088    -8.6280     0.1607 H       
  47 H47            4.2485    -9.5827     0.1820 H       
  48 H48            6.2228    -8.1762    -0.2222 H       
  49 H49            5.9833    -5.7880    -0.6549 H       
@<TRIPOS>BOND
   1    1    2 1
   2    1   32 1
   3    2    3 2
   4    2    4 1
   5    4    5 ar
   6    4    9 ar
   7    5    6 ar
   8    5   33 1
   9    6    7 ar
  10    6   34 1
  11    7    8 ar
  12    7   35 1
  13    8    9 ar
  14    8   36 1
  15    9   10 1
  16   10   11 1
  17   11   12 1
  18   11   37 1
  19   11   38 1
  20   12   13 ar
  21   12   27 ar
  22   13   14 ar
  23   13   39 1
  24   14   15 1
  25   14   25 ar
  26   15   16 1
  27   15   40 1
  28   16   17 ar
  29   16   21 ar
  30   17   18 ar
  31   17   41 1
  32   18   19 ar
  33   18   42 1
  34   19   20 ar
  35   19   43 1
  36   20   21 ar
  37   20   44 1
  38   21   22 1
  39   22   23 2
  40   22   24 1
  41   24   45 1
  42   25   26 ar
  43   25   31 ar
  44   26   27 ar
  45   26   28 ar
  46   28   29 ar
  47   28   46 1
  48   29   30 ar
  49   29   47 1
  50   30   31 ar
  51   30   48 1
  52   31   49 1

#	End of record

