#	Name: ASD01770004
#	Creating user name:	WinNT
#	Creation time:	15. 06. 2019 19:23

#	Modifying user name:	WinNT
#	Modification time:	15. 06. 2019 19:23

#	Program:	/corina/corina34_cracker 3.40 0067  02.08.2006

@<TRIPOS>MOLECULE
ASD01770004
  35   36    0    0    0
SMALL
NO_CHARGES


@<TRIPOS>ATOM
   1 O1            -0.0173     1.4248     0.0099 O.3     
   2 C2             0.0021    -0.0041     0.0020 C.3     
   3 C3             0.6933    -0.4966    -1.2721 C.3     
   4 C4             2.1083     0.0868    -1.3342 C.3     
   5 C5             2.0216     1.6150    -1.2734 C.3     
   6 C6             1.2791     2.0260     0.0007 C.3     
   7 O7            -0.0503    -0.0686    -2.4148 O.3     
   8 O8             2.7351    -0.3082    -2.5561 O.3     
   9 O9             3.3393     2.1677    -1.2576 O.3     
  10 O10            1.1451     3.4482     0.0365 O.3     
  11 C11            0.6954     3.9966     1.1957 C.ar    
  12 C12            0.5416     5.3716     1.3003 C.ar    
  13 C13            0.0839     5.9265     2.4794 C.ar    
  14 C14           -0.2205     5.1130     3.5554 C.ar    
  15 C15           -0.0681     3.7427     3.4538 C.ar    
  16 C16            0.3840     3.1823     2.2746 C.ar    
  17 N17            0.8681     6.2430     0.1494 N.pl3   
  18 O18            0.7329     7.4500     0.2417 O.2     
  19 O19            1.2721     5.7532    -0.8901 O.2     
  20 C20            0.7674    -0.5107     1.2262 C.3     
  21 H21           -1.0201    -0.3816     0.0302 H       
  22 H22            0.7484    -1.5852    -1.2590 H       
  23 H23            2.6910    -0.2792    -0.4889 H       
  24 H24            1.4822     1.9842    -2.1456 H       
  25 H25            1.8410     1.6916     0.8728 H       
  26 H26           -0.9593    -0.3977    -2.4384 H       
  27 H27            3.6359     0.0268    -2.6623 H       
  28 H28            3.3602     3.1337    -1.2195 H       
  29 H29           -0.0360     6.9967     2.5613 H       
  30 H30           -0.5775     5.5488     4.4768 H       
  31 H31           -0.3065     3.1094     4.2955 H       
  32 H32            0.4989     2.1114     2.1943 H       
  33 H33            0.2757    -0.1591     2.1332 H       
  34 H34            0.7820    -1.6006     1.2200 H       
  35 H35            1.7896    -0.1334     1.1974 H       
@<TRIPOS>BOND
   1    1    2 1
   2    1    6 1
   3    2    3 1
   4    2   20 1
   5    2   21 1
   6    3    4 1
   7    3    7 1
   8    3   22 1
   9    4    5 1
  10    4    8 1
  11    4   23 1
  12    5    9 1
  13    5    6 1
  14    5   24 1
  15    6   10 1
  16    6   25 1
  17    7   26 1
  18    8   27 1
  19    9   28 1
  20   10   11 1
  21   11   12 ar
  22   11   16 ar
  23   12   13 ar
  24   12   17 1
  25   13   14 ar
  26   13   29 1
  27   14   15 ar
  28   14   30 1
  29   15   16 ar
  30   15   31 1
  31   16   32 1
  32   17   18 2
  33   17   19 2
  34   20   33 1
  35   20   34 1
  36   20   35 1

#	End of record

