#	Name: ASD03430870
#	Creating user name:	WinNT
#	Creation time:	15. 06. 2019 20:41

#	Modifying user name:	WinNT
#	Modification time:	15. 06. 2019 20:41

#	Program:	/corina/corina34_cracker 3.40 0067  02.08.2006

@<TRIPOS>MOLECULE
ASD03430870
  34   38    0    0    0
SMALL
NO_CHARGES


@<TRIPOS>ATOM
   1 O1            -0.0161     1.3380     0.0094 O.3     
   2 C2             0.0021    -0.0041     0.0020 C.2     
   3 N3             1.2265    -0.4380    -0.0093 N.2     
   4 C4             2.0712     0.6294    -0.0092 C.ar    
   5 C5             1.2624     1.7761    -0.0005 C.ar    
   6 C6             3.4589     0.7603    -0.0126 C.ar    
   7 C7             4.0396     2.0192    -0.0130 C.ar    
   8 C8             3.2205     3.1504    -0.0170 C.ar    
   9 C9             1.8498     3.0315    -0.0059 C.ar    
  10 O10            5.3582     2.3677     0.0013 O.3     
  11 C11            4.1391     4.3430    -0.0495 C.3     
  12 C12            5.4938     3.7337    -0.4351 C.3     
  13 N13            3.5207     6.5231    -0.3478 N.am    
  14 C14            3.6891     5.3785    -1.0395 C.2     
  15 C15            4.1994     5.0533     1.2700 C.ar    
  16 C16            4.5363     4.6635     2.5467 C.ar    
  17 C17            4.4928     5.5775     3.5851 C.ar    
  18 C18            4.1088     6.8826     3.3378 C.ar    
  19 C19            3.7691     7.2778     2.0603 C.ar    
  20 C20            3.8118     6.3656     1.0093 C.ar    
  21 O21            3.5123     5.2168    -2.2285 O.2     
  22 C22           -1.2228    -0.8820     0.0070 C.3     
  23 H23            4.0832    -0.1210    -0.0144 H       
  24 H24            1.2312     3.9168    -0.0015 H       
  25 H25            6.3065     4.2305     0.0949 H       
  26 H26            5.6470     3.7821    -1.5132 H       
  27 H27            3.2316     7.3590    -0.7461 H       
  28 H28            4.8345     3.6433     2.7382 H       
  29 H29            4.7578     5.2719     4.5864 H       
  30 H30            4.0742     7.5956     4.1482 H       
  31 H31            3.4686     8.2984     1.8749 H       
  32 H32           -1.5262    -1.0882    -1.0194 H       
  33 H33           -0.9955    -1.8198     0.5140 H       
  34 H34           -2.0324    -0.3731     0.5300 H       
@<TRIPOS>BOND
   1    1    2 1
   2    1    5 1
   3    2    3 2
   4    2   22 1
   5    3    4 1
   6    4    5 ar
   7    4    6 ar
   8    5    9 ar
   9    6    7 ar
  10    6   23 1
  11    7    8 ar
  12    7   10 1
  13    8    9 ar
  14    8   11 1
  15    9   24 1
  16   10   12 1
  17   11   12 1
  18   11   14 1
  19   11   15 1
  20   12   25 1
  21   12   26 1
  22   13   14 am
  23   13   20 1
  24   13   27 1
  25   14   21 2
  26   15   16 ar
  27   15   20 ar
  28   16   17 ar
  29   16   28 1
  30   17   18 ar
  31   17   29 1
  32   18   19 ar
  33   18   30 1
  34   19   20 ar
  35   19   31 1
  36   22   32 1
  37   22   33 1
  38   22   34 1

#	End of record

