#	Name: ASD01028501
#	Creating user name:	WinNT
#	Creation time:	15. 06. 2019 18:57

#	Modifying user name:	WinNT
#	Modification time:	15. 06. 2019 18:57

#	Program:	/corina/corina34_cracker 3.40 0067  02.08.2006

@<TRIPOS>MOLECULE
ASD01028501
  42   46    0    0    0
SMALL
NO_CHARGES


@<TRIPOS>ATOM
   1 C1            -0.0171     1.4129     0.0098 C.ar    
   2 C2             0.0021    -0.0041     0.0020 C.ar    
   3 C3             1.1937     2.1233     0.0021 C.ar    
   4 C4             2.3731     1.4427    -0.0129 C.ar    
   5 C5             2.3944     0.0497    -0.0206 C.ar    
   6 C6             1.2395    -0.6705    -0.0139 C.ar    
   7 C7             4.1192     2.4536     1.3961 C.2     
   8 N8             4.9141     1.6394     2.1433 N.pl3   
   9 C9             5.0537     2.2629     3.3590 C.2     
  10 N10            4.3602     3.3879     3.2942 N.2     
  11 N11            3.8188     3.4926     2.1317 N.2     
  12 C12            5.5215     0.4437     1.9037 C.2     
  13 C13            6.2763    -0.1503     2.8678 C.2     
  14 C14            6.4349     0.4720     4.1287 C.2     
  15 C15            5.8318     1.6643     4.3700 C.2     
  16 N16           -1.1484    -0.6849     0.0103 N.ar    
  17 C17           -2.3050    -0.0683     0.0256 C.ar    
  18 C18           -2.3946     1.3222     0.0339 C.ar    
  19 C19           -1.2574     2.0785     0.0311 C.ar    
  20 C20            6.9336    -1.4528     2.5965 C.ar    
  21 C21            3.6723     2.2063    -0.0217 C.3     
  22 C22            8.3239    -1.5421     2.5687 C.ar    
  23 C23            8.9300    -2.7560     2.3159 C.ar    
  24 C24            8.1599    -3.8826     2.0897 C.ar    
  25 C25            6.7794    -3.7996     2.1156 C.ar    
  26 C26            6.1629    -2.5921     2.3741 C.ar    
  27 H27            1.1899     3.2032     0.0076 H       
  28 H28            3.3427    -0.4671    -0.0325 H       
  29 H29            1.2738    -1.7499    -0.0200 H       
  30 H30            5.4030    -0.0358     0.9433 H       
  31 H31            7.0334     0.0015     4.8948 H       
  32 H32            5.9460     2.1487     5.3285 H       
  33 H33           -3.2127    -0.6535     0.0315 H       
  34 H34           -3.3624     1.8014     0.0461 H       
  35 H35           -1.3083     3.1573     0.0374 H       
  36 H36            4.4314     1.6258    -0.5459 H       
  37 H37            3.5295     3.1603    -0.5293 H       
  38 H38            8.9261    -0.6629     2.7444 H       
  39 H39           10.0074    -2.8264     2.2941 H       
  40 H40            8.6383    -4.8304     1.8919 H       
  41 H41            6.1829    -4.6823     1.9381 H       
  42 H42            5.0849    -2.5285     2.3945 H       
@<TRIPOS>BOND
   1    1    2 ar
   2    1    3 ar
   3    1   19 ar
   4    2   16 ar
   5    2    6 ar
   6    3    4 ar
   7    3   27 1
   8    4    5 ar
   9    4   21 1
  10    5    6 ar
  11    5   28 1
  12    6   29 1
  13    7    8 1
  14    7   21 1
  15    7   11 2
  16    8    9 1
  17    8   12 1
  18    9   10 2
  19    9   15 1
  20   10   11 1
  21   12   13 2
  22   12   30 1
  23   13   14 1
  24   13   20 1
  25   14   15 2
  26   14   31 1
  27   15   32 1
  28   16   17 ar
  29   17   18 ar
  30   17   33 1
  31   18   19 ar
  32   18   34 1
  33   19   35 1
  34   20   22 ar
  35   20   26 ar
  36   21   36 1
  37   21   37 1
  38   22   23 ar
  39   22   38 1
  40   23   24 ar
  41   23   39 1
  42   24   25 ar
  43   24   40 1
  44   25   26 ar
  45   25   41 1
  46   26   42 1

#	End of record

