#	Name: ASD01880052
#	Creating user name:	WinNT
#	Creation time:	15. 06. 2019 19:39

#	Modifying user name:	WinNT
#	Modification time:	15. 06. 2019 19:39

#	Program:	/corina/corina34_cracker 3.40 0067  02.08.2006

@<TRIPOS>MOLECULE
ASD01880052
  49   53    0    0    0
SMALL
NO_CHARGES


@<TRIPOS>ATOM
   1 C1            -0.0169     1.3927     0.0097 C.ar    
   2 C2             0.0021    -0.0041     0.0020 C.ar    
   3 C3             1.2135    -0.6907    -0.0132 C.ar    
   4 C4             2.4022     0.0193    -0.0208 C.ar    
   5 C5             2.3727     1.4246    -0.0130 C.ar    
   6 C6             1.1522     2.0999     0.0023 C.ar    
   7 N7             3.6286    -0.6376    -0.0355 N.pl3   
   8 C8             4.7929     0.0687    -0.0425 C.2     
   9 N9             4.8015     1.4562    -0.0349 N.am    
  10 C10            3.6502     2.1585    -0.0210 C.2     
  11 N11            3.9493    -2.0026    -0.0456 N.2     
  12 C12            5.2606    -2.1201    -0.0583 C.2     
  13 C13            5.8179    -0.8301    -0.0567 C.2     
  14 C14            6.0812     2.1693    -0.0431 C.3     
  15 O15            3.6662     3.3751    -0.0143 O.2     
  16 C16           -1.2742    -0.7594     0.0106 C.ar    
  17 C17            6.0195    -3.3953    -0.0712 C.ar    
  18 C18            5.3413    -4.6125    -0.0710 C.ar    
  19 C19            6.0521    -5.7956    -0.0830 C.ar    
  20 C20            7.4351    -5.7743    -0.0947 C.ar    
  21 C21            8.1134    -4.5688    -0.0944 C.ar    
  22 C22            7.4126    -3.3798    -0.0892 C.ar    
  23 C23           -1.2623    -2.1530     0.0030 C.ar    
  24 C24           -2.4532    -2.8507     0.0116 C.ar    
  25 C25           -3.6567    -2.1694     0.0277 C.ar    
  26 C26           -3.6746    -0.7860     0.0353 C.ar    
  27 C27           -2.4903    -0.0781     0.0322 C.ar    
  28 S28           -5.2127     0.0734     0.0552 S.o2    
  29 O29           -4.9588     1.3630    -0.4849 O.2     
  30 O30           -6.1780    -0.8190    -0.4844 O.2     
  31 N31           -5.6249     0.3039     1.6424 N.am    
  32 H32           -0.9612     1.9167     0.0170 H       
  33 H33            1.2257    -1.7706    -0.0188 H       
  34 H34            1.1314     3.1797     0.0087 H       
  35 H35            6.8715    -0.5928    -0.0654 H       
  36 H36            6.3888     2.3519    -1.0727 H       
  37 H37            5.9702     3.1208     0.4771 H       
  38 H38            6.8366     1.5660     0.4603 H       
  39 H39            4.2615    -4.6303    -0.0612 H       
  40 H40            5.5275    -6.7396    -0.0829 H       
  41 H41            7.9874    -6.7024    -0.1037 H       
  42 H42            9.1933    -4.5580    -0.1032 H       
  43 H43            7.9432    -2.4391    -0.0894 H       
  44 H44           -0.3230    -2.6860    -0.0099 H       
  45 H45           -2.4452    -3.9306     0.0054 H       
  46 H46           -4.5862    -2.7195     0.0340 H       
  47 H47           -2.5054     1.0018     0.0385 H       
  48 H48           -6.1494     1.0782     1.8998 H       
  49 H49           -5.3417    -0.3353     2.3149 H       
@<TRIPOS>BOND
   1    1    2 ar
   2    1    6 ar
   3    1   32 1
   4    2    3 ar
   5    2   16 1
   6    3    4 ar
   7    3   33 1
   8    4    5 ar
   9    4    7 1
  10    5    6 ar
  11    5   10 1
  12    6   34 1
  13    7    8 1
  14    7   11 1
  15    8    9 1
  16    8   13 2
  17    9   10 am
  18    9   14 1
  19   10   15 2
  20   11   12 2
  21   12   13 1
  22   12   17 1
  23   13   35 1
  24   14   36 1
  25   14   37 1
  26   14   38 1
  27   16   23 ar
  28   16   27 ar
  29   17   18 ar
  30   17   22 ar
  31   18   19 ar
  32   18   39 1
  33   19   20 ar
  34   19   40 1
  35   20   21 ar
  36   20   41 1
  37   21   22 ar
  38   21   42 1
  39   22   43 1
  40   23   24 ar
  41   23   44 1
  42   24   25 ar
  43   24   45 1
  44   25   26 ar
  45   25   46 1
  46   26   27 ar
  47   26   28 1
  48   27   47 1
  49   28   29 2
  50   28   30 2
  51   28   31 am
  52   31   48 1
  53   31   49 1

#	End of record

