#	Name: ASD03430700
#	Creating user name:	WinNT
#	Creation time:	15. 06. 2019 20:41

#	Modifying user name:	WinNT
#	Modification time:	15. 06. 2019 20:41

#	Program:	/corina/corina34_cracker 3.40 0067  02.08.2006

@<TRIPOS>MOLECULE
ASD03430700
  54   60    0    0    0
SMALL
NO_CHARGES


@<TRIPOS>ATOM
   1 C1            -0.0167     1.3821     0.0096 C.ar    
   2 C2             0.0021    -0.0041     0.0020 C.ar    
   3 C3             1.2028    -0.6818    -0.0123 C.ar    
   4 C4             2.4085     0.0130    -0.0110 C.ar    
   5 C5             2.3859     1.4041    -0.0105 C.ar    
   6 C6             1.1814     2.0870     0.0020 C.ar    
   7 O7             3.4714    -0.8414     0.0052 O.3     
   8 C8             1.5513    -2.1459    -0.0407 C.3     
   9 C9             3.0385    -2.1475    -0.4206 C.3     
  10 C10            0.4258    -3.8588     1.0184 C.ar    
  11 C11            1.3093    -2.8146     1.2802 C.ar    
  12 C12            0.7228    -2.9105    -1.0325 C.2     
  13 N13            0.1036    -3.8891    -0.3428 N.am    
  14 O14            0.6287    -2.6903    -2.2216 O.2     
  15 C15            1.7665    -2.5855     2.5591 C.ar    
  16 C16            1.3496    -3.3975     3.6040 C.ar    
  17 C17            0.4683    -4.4431     3.3552 C.ar    
  18 C18            0.0105    -4.6724     2.0681 C.ar    
  19 O19            1.8124    -3.1586     4.8621 O.3     
  20 C20            1.0829    -3.7560     5.9397 C.3     
  21 C21            0.8068    -5.2215     5.5771 C.3     
  22 O22            0.0418    -5.2479     4.3674 O.3     
  23 C23           -0.8004    -4.8703    -0.9478 C.3     
  24 C24           -2.2111    -4.3414    -0.9140 C.2     
  25 O25           -3.0964    -4.5281     0.0786 O.3     
  26 C26           -4.2509    -3.9152    -0.2298 C.2     
  27 C27           -4.1121    -3.3271    -1.4316 C.2     
  28 C28           -2.7954    -3.5973    -1.8702 C.2     
  29 O29           -1.2112     2.0357     0.0189 O.3     
  30 C30           -1.1861     3.4151     0.4025 C.3     
  31 C31           -0.0355     4.1000    -0.3474 C.3     
  32 O32            1.1866     3.4485     0.0112 O.3     
  33 C33           -5.4916    -3.8910     0.6252 C.3     
  34 F34           -6.3023    -4.9843     0.3017 F       
  35 F35           -5.1295    -3.9620     1.9746 F       
  36 F36           -6.1949    -2.7041     0.3929 F       
  37 H37           -0.9268    -0.5550     0.0077 H       
  38 H38            3.3146     1.9553    -0.0191 H       
  39 H39            3.1628    -2.2645    -1.4971 H       
  40 H40            3.5749    -2.9280     0.1191 H       
  41 H41            2.4514    -1.7723     2.7488 H       
  42 H42           -0.6726    -5.4872     1.8783 H       
  43 H43            1.6735    -3.7085     6.8546 H       
  44 H44            0.1397    -3.2285     6.0823 H       
  45 H45            1.7499    -5.7470     5.4271 H       
  46 H46            0.2431    -5.6986     6.3789 H       
  47 H47           -0.5039    -5.0486    -1.9815 H       
  48 H48           -0.7492    -5.8047    -0.3888 H       
  49 H49           -4.8614    -2.7551    -1.9586 H       
  50 H50           -2.3470    -3.2740    -2.7980 H       
  51 H51           -2.1315     3.8880     0.1367 H       
  52 H52           -1.0237     3.4950     1.4774 H       
  53 H53           -0.1940     4.0129    -1.4223 H       
  54 H54            0.0116     5.1521    -0.0663 H       
@<TRIPOS>BOND
   1    1    2 ar
   2    1    6 ar
   3    1   29 1
   4    2    3 ar
   5    2   37 1
   6    3    4 ar
   7    3    8 1
   8    4    5 ar
   9    4    7 1
  10    5    6 ar
  11    5   38 1
  12    6   32 1
  13    7    9 1
  14    8    9 1
  15    8   11 1
  16    8   12 1
  17    9   39 1
  18    9   40 1
  19   10   11 ar
  20   10   13 1
  21   10   18 ar
  22   11   15 ar
  23   12   13 am
  24   12   14 2
  25   13   23 1
  26   15   16 ar
  27   15   41 1
  28   16   17 ar
  29   16   19 1
  30   17   18 ar
  31   17   22 1
  32   18   42 1
  33   19   20 1
  34   20   21 1
  35   20   43 1
  36   20   44 1
  37   21   22 1
  38   21   45 1
  39   21   46 1
  40   23   24 1
  41   23   47 1
  42   23   48 1
  43   24   25 1
  44   24   28 2
  45   25   26 1
  46   26   27 2
  47   26   33 1
  48   27   28 1
  49   27   49 1
  50   28   50 1
  51   29   30 1
  52   30   31 1
  53   30   51 1
  54   30   52 1
  55   31   32 1
  56   31   53 1
  57   31   54 1
  58   33   34 1
  59   33   35 1
  60   33   36 1

#	End of record

