#	Name: ASD00192038
#	Creating user name:	WinNT
#	Creation time:	15. 06. 2019 18:33

#	Modifying user name:	WinNT
#	Modification time:	15. 06. 2019 18:33

#	Program:	/corina/corina34_cracker 3.40 0067  02.08.2006

@<TRIPOS>MOLECULE
ASD00192038
  39   42    0    0    0
SMALL
NO_CHARGES


@<TRIPOS>ATOM
   1 N1            -0.0157     1.3039     0.0092 N.ar    
   2 C2             0.0021    -0.0041     0.0020 C.ar    
   3 C3             1.2121    -0.7189    -0.0134 C.ar    
   4 C4             2.4215    -0.0122    -0.0211 C.ar    
   5 C5             2.3732     1.3981    -0.0135 C.ar    
   6 C6             3.5397     2.1730    -0.0203 C.ar    
   7 C7             3.4478     3.5334    -0.0123 C.ar    
   8 C8             2.2069     4.1623     0.0030 C.ar    
   9 C9             1.0531     3.4377     0.0100 C.ar    
  10 C10            1.1084     2.0351     0.0024 C.ar    
  11 C11            2.8220    -2.1750    -0.0359 C.2     
  12 N12            1.5273    -2.0375    -0.0230 N.2     
  13 N13            3.4173    -0.9514    -0.0353 N.pl3   
  14 C14            3.5524    -3.4931    -0.0499 C.3     
  15 C15            3.8735    -3.8394    -1.4266 C.3     
  16 C16            4.5671    -5.2123    -1.5410 C.3     
  17 C17            6.0216    -5.0434    -1.1945 C.3     
  18 C18            6.3125    -5.3403     0.2890 C.3     
  19 C19            5.2432    -4.7612     1.2350 C.3     
  20 C20            4.8099    -3.3767     0.8356 C.3     
  21 H21           -0.9322    -0.5458     0.0084 H       
  22 H22            4.5081     1.6950    -0.0314 H       
  23 H23            4.3484     4.1294    -0.0175 H       
  24 H24            2.1574     5.2412     0.0099 H       
  25 H25            0.0979     3.9414     0.0220 H       
  26 H26            4.3714    -0.7769    -0.0436 H       
  27 H27            2.9004    -4.2619     0.3646 H       
  28 H28            2.9527    -3.8594    -2.0095 H       
  29 H29            4.5331    -3.0753    -1.8381 H       
  30 H30            4.1048    -5.9150    -0.8478 H       
  31 H31            4.4746    -5.5854    -2.5610 H       
  32 H32            6.6121    -5.7202    -1.8120 H       
  33 H33            6.3197    -4.0182    -1.4140 H       
  34 H34            6.3580    -6.4203     0.4290 H       
  35 H35            7.2809    -4.9131     0.5497 H       
  36 H36            4.3736    -5.4184     1.2287 H       
  37 H37            5.6488    -4.7259     2.2462 H       
  38 H38            5.6086    -2.8905     0.2754 H       
  39 H39            4.5773    -2.7944     1.7272 H       
@<TRIPOS>BOND
   1    1    2 ar
   2    1   10 ar
   3    2    3 ar
   4    2   21 1
   5    3    4 ar
   6    3   12 1
   7    4    5 ar
   8    4   13 1
   9    5    6 ar
  10    5   10 ar
  11    6    7 ar
  12    6   22 1
  13    7    8 ar
  14    7   23 1
  15    8    9 ar
  16    8   24 1
  17    9   10 ar
  18    9   25 1
  19   11   12 2
  20   11   13 1
  21   11   14 1
  22   13   26 1
  23   14   15 1
  24   14   20 1
  25   14   27 1
  26   15   16 1
  27   15   28 1
  28   15   29 1
  29   16   17 1
  30   16   30 1
  31   16   31 1
  32   17   18 1
  33   17   32 1
  34   17   33 1
  35   18   19 1
  36   18   34 1
  37   18   35 1
  38   19   20 1
  39   19   36 1
  40   19   37 1
  41   20   38 1
  42   20   39 1

#	End of record

