#	Name: ASD01420072
#	Creating user name:	WinNT
#	Creation time:	15. 06. 2019 19:20

#	Modifying user name:	WinNT
#	Modification time:	15. 06. 2019 19:20

#	Program:	/corina/corina34_cracker 3.40 0067  02.08.2006

@<TRIPOS>MOLECULE
ASD01420072
  35   37    0    0    0
SMALL
NO_CHARGES


@<TRIPOS>ATOM
   1 C1            -0.0144     1.2120     0.0087 C.2     
   2 O2             0.1214     0.0704     0.4055 O.2     
   3 C3             1.1506     2.1106    -0.0624 C.ar    
   4 C4             2.0756     2.1497     0.9922 C.ar    
   5 C5             3.1677     2.9965     0.9170 C.ar    
   6 C6             3.3456     3.8029    -0.1977 C.ar    
   7 C7             2.4293     3.7653    -1.2441 C.ar    
   8 C8             1.3424     2.9237    -1.1835 C.ar    
   9 C9             2.6309     4.6455    -2.4506 C.3     
  10 F10            1.5901     4.4340    -3.3613 F       
  11 F11            2.6376     5.9869    -2.0534 F       
  12 F12            3.8521     4.3327    -3.0573 F       
  13 O13            4.4175     4.6324    -0.2676 O.3     
  14 O14            1.8997     1.3606     2.0816 O.3     
  15 C15           -2.4573     0.8567    -0.4683 C.3     
  16 N16           -1.2299     1.6532    -0.3712 N.am    
  17 C17           -1.5783     3.0218    -0.7660 C.3     
  18 C18           -3.0471     3.0409    -1.1062 C.ar    
  19 C19           -3.8714     4.0687    -1.5317 C.ar    
  20 C20           -5.2083     3.8264    -1.7815 C.ar    
  21 C21           -5.7241     2.5556    -1.6067 C.ar    
  22 C22           -4.9021     1.5296    -1.1826 C.ar    
  23 C23           -3.5623     1.7719    -0.9317 C.ar    
  24 H24            3.8817     3.0298     1.7267 H       
  25 H25            0.6358     2.8941    -1.9997 H       
  26 H26            5.1979     4.2330    -0.6758 H       
  27 H27            2.3180     0.4918     2.0096 H       
  28 H28           -2.3186     0.0507    -1.1888 H       
  29 H29           -2.7065     0.4416     0.5083 H       
  30 H30           -1.3813     3.7059     0.0594 H       
  31 H31           -0.9934     3.3150    -1.6378 H       
  32 H32           -3.4686     5.0614    -1.6683 H       
  33 H33           -5.8502     4.6293    -2.1127 H       
  34 H34           -6.7693     2.3653    -1.8014 H       
  35 H35           -5.3054     0.5371    -1.0458 H       
@<TRIPOS>BOND
   1    1    2 2
   2    1    3 1
   3    1   16 am
   4    3    4 ar
   5    3    8 ar
   6    4    5 ar
   7    4   14 1
   8    5    6 ar
   9    5   24 1
  10    6    7 ar
  11    6   13 1
  12    7    8 ar
  13    7    9 1
  14    8   25 1
  15    9   10 1
  16    9   11 1
  17    9   12 1
  18   13   26 1
  19   14   27 1
  20   15   16 1
  21   15   23 1
  22   15   28 1
  23   15   29 1
  24   16   17 1
  25   17   18 1
  26   17   30 1
  27   17   31 1
  28   18   19 ar
  29   18   23 ar
  30   19   20 ar
  31   19   32 1
  32   20   21 ar
  33   20   33 1
  34   21   22 ar
  35   21   34 1
  36   22   23 ar
  37   22   35 1

#	End of record

