#	Name: ASD08150678
#	Creating user name:	WinNT
#	Creation time:	15. 06. 2019 21:16

#	Modifying user name:	WinNT
#	Modification time:	15. 06. 2019 21:16

#	Program:	/corina/corina34_cracker 3.40 0067  02.08.2006

@<TRIPOS>MOLECULE
ASD08150678
  57   60    0    0    0
SMALL
NO_CHARGES


@<TRIPOS>ATOM
   1 C1            -0.0184     1.5028     0.0103 C.2     
   2 C2             0.0021    -0.0041     0.0020 C.3     
   3 O3             1.0197     2.1211     0.0037 O.2     
   4 O4            -1.1898     2.1580     0.0194 O.3     
   5 F5             1.3272    -0.4524    -0.0130 F       
   6 F6            -0.6401    -0.4855     1.1479 F       
   7 F7            -0.6619    -0.4732    -1.1365 F       
   8 H8            -1.1523     3.1243     0.0245 H       
   9 C9             8.5213    16.4549    10.9281 C.2     
  10 N10            8.5381    15.1256    11.0209 N.2     
  11 C11            9.6715    14.4523    11.1075 C.2     
  12 C12           10.8868    15.1344    11.1031 C.2     
  13 C13           10.8721    16.5417    11.0050 C.2     
  14 N14            9.6830    17.1761    10.9191 N.am    
  15 C15            7.2878    17.1242    10.8321 C.2     
  16 C16            7.2676    18.4837    10.7370 C.2     
  17 C17            8.4756    19.1951    10.7362 C.2     
  18 C18            9.6521    18.5348    10.8234 C.2     
  19 O19           11.9152    17.1745    10.9983 O.2     
  20 C20            9.6501    12.9491    11.2115 C.3     
  21 C21            8.9880    12.5383    12.5283 C.3     
  22 N22            8.8911    12.3926    10.0889 N.pl3   
  23 N23            7.4398    11.0000     7.7640 N.2     
  24 C24            7.1232    10.0659     6.9149 C.2     
  25 N25            7.8846     8.9572     7.1370 N.pl3   
  26 C26            8.7189     9.2353     8.1900 C.ar    
  27 N27            9.6609     8.5636     8.8438 N.ar    
  28 C28           10.3088     9.1199     9.8457 C.ar    
  29 N29           10.0640    10.3526    10.2508 N.ar    
  30 C30            9.1400    11.1014     9.6576 C.ar    
  31 C31            8.4216    10.5515     8.5825 C.ar    
  32 C32           10.9441    19.3106    10.8148 C.3     
  33 C33           12.1678    14.3968    11.1999 C.ar    
  34 C34           13.0669    14.4134    10.1335 C.ar    
  35 C35           14.2602    13.7243    10.2292 C.ar    
  36 C36           14.5637    13.0165    11.3839 C.ar    
  37 C37           13.6732    12.9982    12.4440 C.ar    
  38 C38           12.4811    13.6885    12.3596 C.ar    
  39 F39           15.7314    12.3430    11.4735 F       
  40 F40           15.1325    13.7389     9.1977 F       
  41 H41            6.3638    16.5650    10.8334 H       
  42 H42            6.3272    19.0095    10.6624 H       
  43 H43            8.4665    20.2724    10.6607 H       
  44 H44           10.6711    12.5684    11.1840 H       
  45 H45            7.9670    12.9190    12.5558 H       
  46 H46            8.9725    11.4510    12.6035 H       
  47 H47            9.5527    12.9523    13.3636 H       
  48 H48            8.2140    12.9293     9.6477 H       
  49 H49            6.3682    10.1557     6.1479 H       
  50 H50            7.8438     8.1243     6.6415 H       
  51 H51           11.0686     8.5464    10.3558 H       
  52 H52           11.5508    18.9966     9.9654 H       
  53 H53           10.7278    20.3758    10.7328 H       
  54 H54           11.4882    19.1205    11.7400 H       
  55 H55           12.8303    14.9636     9.2348 H       
  56 H56           13.9138    12.4460    13.3405 H       
  57 H57           11.7897    13.6768    13.1892 H       
@<TRIPOS>BOND
   1    1    2 1
   2    1    3 2
   3    1    4 1
   4    2    5 1
   5    2    6 1
   6    2    7 1
   7    4    8 1
   8    9   10 2
   9    9   14 1
  10    9   15 1
  11   10   11 1
  12   11   12 2
  13   11   20 1
  14   12   13 1
  15   12   33 1
  16   13   14 am
  17   13   19 2
  18   14   18 1
  19   15   16 2
  20   15   41 1
  21   16   17 1
  22   16   42 1
  23   17   18 2
  24   17   43 1
  25   18   32 1
  26   20   21 1
  27   20   22 1
  28   20   44 1
  29   21   45 1
  30   21   46 1
  31   21   47 1
  32   22   30 1
  33   22   48 1
  34   23   24 2
  35   23   31 1
  36   24   25 1
  37   24   49 1
  38   25   26 1
  39   25   50 1
  40   26   27 ar
  41   26   31 ar
  42   27   28 ar
  43   28   29 ar
  44   28   51 1
  45   29   30 ar
  46   30   31 ar
  47   32   52 1
  48   32   53 1
  49   32   54 1
  50   33   34 ar
  51   33   38 ar
  52   34   35 ar
  53   34   55 1
  54   35   36 ar
  55   35   40 1
  56   36   37 ar
  57   36   39 1
  58   37   38 ar
  59   37   56 1
  60   38   57 1

#	End of record

