#	Name: ASD01230751
#	Creating user name:	WinNT
#	Creation time:	15. 06. 2019 19:15

#	Modifying user name:	WinNT
#	Modification time:	15. 06. 2019 19:15

#	Program:	/corina/corina34_cracker 3.40 0067  02.08.2006

@<TRIPOS>MOLECULE
ASD01230751
  30   32    0    0    0
SMALL
NO_CHARGES


@<TRIPOS>ATOM
   1 S1            -0.0204     1.6504     0.0111 S.o2    
   2 N2             0.0021    -0.0041     0.0020 N.am    
   3 C3             1.0230    -0.6873    -0.4557 C.2     
   4 N4             2.1689    -0.1517    -0.9712 N.pl3   
   5 C5             2.3935     1.2855    -1.1472 C.3     
   6 C6             1.7501     2.0749    -0.0035 C.3     
   7 C7             0.8951    -2.1590    -0.3951 C.2     
   8 C8             1.9455    -2.9418    -0.8227 C.2     
   9 C9             3.1044    -2.3189    -1.3056 C.2     
  10 C10            3.1910    -0.9788    -1.3651 C.2     
  11 C11           -0.3450    -2.7835     0.1188 C.ar    
  12 C12           -1.2537    -3.3684    -0.7656 C.ar    
  13 C13           -2.4083    -3.9491    -0.2801 C.ar    
  14 C14           -2.6654    -3.9518     1.0805 C.ar    
  15 C15           -1.7679    -3.3728     1.9614 C.ar    
  16 C16           -0.6075    -2.7949     1.4885 C.ar    
  17 Cl17          -4.1192    -4.6838     1.6841 Cl      
  18 Cl18          -0.9326    -3.3650    -2.4716 Cl      
  19 O19           -0.6346     2.0065    -1.2198 O.2     
  20 O20           -0.6110     1.9931     1.2573 O.2     
  21 H21            3.4654     1.4826    -1.1617 H       
  22 H22            1.9572     1.6042    -2.0939 H       
  23 H23            1.8743     3.1443    -0.1744 H       
  24 H24            2.2074     1.7939     0.9452 H       
  25 H25            1.8768    -4.0190    -0.7860 H       
  26 H26            3.9377    -2.9226    -1.6336 H       
  27 H27            4.1022    -0.5348    -1.7378 H       
  28 H28           -3.1123    -4.4016    -0.9627 H       
  29 H29           -1.9743    -3.3775     3.0215 H       
  30 H30            0.0941    -2.3483     2.1775 H       
@<TRIPOS>BOND
   1    1    2 am
   2    1    6 1
   3    1   19 2
   4    1   20 2
   5    2    3 2
   6    3    4 1
   7    3    7 1
   8    4    5 1
   9    4   10 1
  10    5    6 1
  11    5   21 1
  12    5   22 1
  13    6   23 1
  14    6   24 1
  15    7    8 2
  16    7   11 1
  17    8    9 1
  18    8   25 1
  19    9   10 2
  20    9   26 1
  21   10   27 1
  22   11   12 ar
  23   11   16 ar
  24   12   13 ar
  25   12   18 1
  26   13   14 ar
  27   13   28 1
  28   14   15 ar
  29   14   17 1
  30   15   16 ar
  31   15   29 1
  32   16   30 1

#	End of record

