#	Name: ASD06190004
#	Creating user name:	WinNT
#	Creation time:	15. 06. 2019 21:05

#	Modifying user name:	WinNT
#	Modification time:	15. 06. 2019 21:05

#	Program:	/corina/corina34_cracker 3.40 0067  02.08.2006

@<TRIPOS>MOLECULE
ASD06190004
  41   44    0    0    0
SMALL
NO_CHARGES


@<TRIPOS>ATOM
   1 C1            -0.0171     1.3847     0.0216 C.ar    
   2 C2            -0.2281     0.4070     0.9840 C.ar    
   3 C3            -1.4155    -0.2991     1.0013 C.ar    
   4 C4            -2.3944    -0.0328     0.0605 C.ar    
   5 C5            -2.1873     0.9412    -0.9008 C.ar    
   6 C6            -1.0042     1.6548    -0.9190 C.ar    
   7 N7             1.1853     2.1016     0.0020 N.am    
   8 C8             2.3609     1.4482     0.0890 C.2     
   9 N9             3.5194     2.1282    -0.0195 N.am    
  10 N10            3.5017     3.5143    -0.2228 N.pl3   
  11 C11            3.8132     4.3891     0.8224 C.2     
  12 S12            2.3825    -0.2455     0.3374 S.2     
  13 C13            3.1326     5.6916     0.6953 C.2     
  14 N14            4.6212     4.0847     1.8082 N.2     
  15 Cl15          -0.7448     2.8767    -2.1245 Cl      
  16 Cl16          -3.8850    -0.9222     0.0856 Cl      
  17 C17            2.6014     6.0646    -0.5595 C.2     
  18 N18            2.7085     5.2389    -1.6179 N.2     
  19 C19            3.1860     4.0307    -1.4444 C.2     
  20 C20            2.8705     6.7221     1.5896 C.2     
  21 N21            2.2297     7.6682     0.9461 N.2     
  22 N22            2.0509     7.2849    -0.3936 N.pl3   
  23 C23            1.4120     8.0395    -1.3856 C.ar    
  24 C24            0.3222     8.8362    -1.0601 C.ar    
  25 C25            1.8707     7.9971    -2.6957 C.ar    
  26 C26            1.2388     8.7428    -3.6715 C.ar    
  27 C27            0.1508     9.5314    -3.3450 C.ar    
  28 C28           -0.3053     9.5795    -2.0405 C.ar    
  29 H29            0.5355     0.1980     1.7186 H       
  30 H30           -1.5796    -1.0602     1.7498 H       
  31 H31           -2.9529     1.1469    -1.6342 H       
  32 H32            1.1723     3.0685    -0.0742 H       
  33 H33            4.3655     1.6580     0.0431 H       
  34 H34            5.0404     3.2105     1.8394 H       
  35 H35            3.3290     3.4091    -2.3159 H       
  36 H36            3.1467     6.7408     2.6335 H       
  37 H37           -0.0346     8.8742    -0.0414 H       
  38 H38            2.7208     7.3819    -2.9512 H       
  39 H39            1.5950     8.7102    -4.6905 H       
  40 H40           -0.3411    10.1141    -4.1098 H       
  41 H41           -1.1553    10.1964    -1.7886 H       
@<TRIPOS>BOND
   1    1    2 ar
   2    1    7 1
   3    1    6 ar
   4    2    3 ar
   5    2   29 1
   6    3    4 ar
   7    3   30 1
   8    4    5 ar
   9    4   16 1
  10    5    6 ar
  11    5   31 1
  12    6   15 1
  13    7    8 am
  14    7   32 1
  15    8    9 am
  16    8   12 2
  17    9   10 1
  18    9   33 1
  19   10   11 1
  20   10   19 1
  21   11   13 1
  22   11   14 2
  23   13   17 2
  24   13   20 1
  25   14   34 1
  26   17   18 1
  27   17   22 1
  28   18   19 2
  29   19   35 1
  30   20   21 2
  31   20   36 1
  32   21   22 1
  33   22   23 1
  34   23   24 ar
  35   23   25 ar
  36   24   28 ar
  37   24   37 1
  38   25   26 ar
  39   25   38 1
  40   26   27 ar
  41   26   39 1
  42   27   28 ar
  43   27   40 1
  44   28   41 1

#	End of record

