#	Name: ASD00840641
#	Creating user name:	WinNT
#	Creation time:	15. 06. 2019 18:39

#	Modifying user name:	WinNT
#	Modification time:	15. 06. 2019 18:39

#	Program:	/corina/corina34_cracker 3.40 0067  02.08.2006

@<TRIPOS>MOLECULE
ASD00840641
  92   97    0    0    0
SMALL
NO_CHARGES


@<TRIPOS>ATOM
   1 N1             1.0668     1.4583    -0.7463 N.ar    
   2 C2             1.3274     0.1664    -0.8552 C.ar    
   3 C3             1.2457    -0.6680     0.2526 C.ar    
   4 C4             0.8873    -0.1296     1.4759 C.ar    
   5 C5             0.6218     1.2312     1.5483 C.ar    
   6 C6             0.7226     2.0005     0.4065 C.ar    
   7 C7             1.5431    -2.1397     0.1237 C.3     
   8 C8             1.2603    -2.8545     1.4279 C.2     
   9 C9             0.7233    -2.7535    -1.0130 C.3     
  10 C10           -0.7388    -2.4634    -0.7913 C.2     
  11 N11           -1.6629    -2.9847    -1.6224 N.am    
  12 O12           -1.0840    -1.7607     0.1350 O.2     
  13 C13           -3.0803    -2.6221    -1.4879 C.3     
  14 C14           -3.9086    -3.9054    -1.3707 C.3     
  15 C15           -3.6031    -4.8156    -2.5625 C.3     
  16 C16           -2.1204    -5.1948    -2.5501 C.3     
  17 C17           -1.2711    -3.9217    -2.6842 C.3     
  18 N18           -4.4203    -6.0328    -2.4709 N.3     
  19 C19           -4.2418    -6.8777    -3.6600 C.3     
  20 C20           -5.0457    -8.1690    -3.4903 C.3     
  21 N21           -6.4636    -7.8377    -3.2913 N.3     
  22 C22           -6.6421    -6.9927    -2.1023 C.3     
  23 C23           -5.8381    -5.7015    -2.2719 C.3     
  24 C24           -7.2808    -9.0549    -3.1997 C.3     
  25 O25            0.1880    -2.9307     1.9894 O.2     
  26 N26            2.4195    -3.3890     1.8463 N.am    
  27 C27            3.0208    -2.3638    -0.1038 C.ar    
  28 C28            3.4713    -3.1218     0.9744 C.ar    
  29 C29            3.8783    -1.9735    -1.1010 C.ar    
  30 C30            5.2280    -2.3387    -1.0409 C.ar    
  31 C31            5.6879    -3.1006     0.0400 C.ar    
  32 C32            4.8160    -3.4877     1.0350 C.ar    
  33 F33            6.9890    -3.4583     0.1072 F       
  34 C34            2.2853    -5.9547     2.8331 C.ar    
  35 C35            1.0309    -6.3533     2.3940 C.ar    
  36 C36            3.3058    -6.8799     2.9448 C.ar    
  37 C37            3.0800    -8.2034     2.6192 C.ar    
  38 C38            1.8270    -8.6071     2.1795 C.ar    
  39 C39            0.8017    -7.6811     2.0671 C.ar    
  40 O40            1.6054    -9.9092     1.8599 O.3     
  41 O41            0.0277    -5.4431     2.2848 O.3     
  42 C42           -1.2375    -5.9239     1.8264 C.3     
  43 C43            2.7073   -10.8082     2.0001 C.3     
  44 S44            2.5793    -4.2661     3.2418 S.o2    
  45 O45            3.9468    -4.1765     3.6177 O.2     
  46 O46            1.5122    -3.8671     4.0910 O.2     
  47 O47            1.6773    -0.3493    -2.0603 O.3     
  48 C48            2.1708    -0.1850    -4.4204 C.3     
  49 C49            1.6356     0.5358    -3.1815 C.3     
  50 C50            6.1312    -1.9368    -2.0768 C.1     
  51 N51            6.8478    -1.6179    -2.8986 N.1     
  52 H52            0.8153    -0.7538     2.3543 H       
  53 H53            0.3391     1.6829     2.4876 H       
  54 H54            0.5175     3.0597     0.4575 H       
  55 H55            1.0393    -2.3223    -1.9629 H       
  56 H56            0.8807    -3.8319    -1.0333 H       
  57 H57           -3.2188    -2.0149    -0.5933 H       
  58 H58           -3.3988    -2.0605    -2.3661 H       
  59 H59           -3.6527    -4.4204    -0.4447 H       
  60 H60           -4.9694    -3.6547    -1.3670 H       
  61 H61           -3.8360    -4.2910    -3.4892 H       
  62 H62           -1.8814    -5.6975    -1.6130 H       
  63 H63           -1.9085    -5.8617    -3.3857 H       
  64 H64           -1.4433    -3.4687    -3.6605 H       
  65 H65           -0.2160    -4.1733    -2.5768 H       
  66 H66           -4.5942    -6.3432    -4.5422 H       
  67 H67           -3.1857    -7.1199    -3.7788 H       
  68 H68           -4.9380    -8.7844    -4.3835 H       
  69 H69           -4.6752    -8.7169    -2.6239 H       
  70 H70           -7.6982    -6.7506    -1.9834 H       
  71 H71           -6.2897    -7.5273    -1.2201 H       
  72 H72           -5.9459    -5.0860    -1.3787 H       
  73 H73           -6.2087    -5.1536    -3.1383 H       
  74 H74           -6.9413    -9.6580    -2.3576 H       
  75 H75           -8.3255    -8.7809    -3.0526 H       
  76 H76           -7.1820    -9.6290    -4.1210 H       
  77 H77            3.5128    -1.3862    -1.9303 H       
  78 H78            5.1761    -4.0755     1.8664 H       
  79 H79            4.2815    -6.5677     3.2868 H       
  80 H80            3.8793    -8.9244     2.7067 H       
  81 H81           -0.1741    -7.9934     1.7255 H       
  82 H82           -1.1236    -6.3550     0.8317 H       
  83 H83           -1.6069    -6.6861     2.5126 H       
  84 H84           -1.9470    -5.0975     1.7851 H       
  85 H85            2.3957   -11.8125     1.7131 H       
  86 H86            3.5251   -10.4837     1.3566 H       
  87 H87            3.0417   -10.8141     3.0375 H       
  88 H88            3.1674    -0.5742    -4.2122 H       
  89 H89            1.5052    -1.0091    -4.6771 H       
  90 H90            2.2210     0.5149    -5.2546 H       
  91 H91            0.6068     0.8488    -3.3592 H       
  92 H92            2.2515     1.4114    -2.9762 H       
@<TRIPOS>BOND
   1    1    2 ar
   2    1    6 ar
   3    2    3 ar
   4    2   47 1
   5    3    4 ar
   6    3    7 1
   7    4    5 ar
   8    4   52 1
   9    5    6 ar
  10    5   53 1
  11    6   54 1
  12    7    8 1
  13    7    9 1
  14    7   27 1
  15    8   25 2
  16    8   26 am
  17    9   10 1
  18    9   55 1
  19    9   56 1
  20   10   11 am
  21   10   12 2
  22   11   13 1
  23   11   17 1
  24   13   14 1
  25   13   57 1
  26   13   58 1
  27   14   15 1
  28   14   59 1
  29   14   60 1
  30   15   16 1
  31   15   18 1
  32   15   61 1
  33   16   17 1
  34   16   62 1
  35   16   63 1
  36   17   64 1
  37   17   65 1
  38   18   19 1
  39   18   23 1
  40   19   20 1
  41   19   66 1
  42   19   67 1
  43   20   21 1
  44   20   68 1
  45   20   69 1
  46   21   22 1
  47   21   24 1
  48   22   23 1
  49   22   70 1
  50   22   71 1
  51   23   72 1
  52   23   73 1
  53   24   74 1
  54   24   75 1
  55   24   76 1
  56   26   44 am
  57   26   28 1
  58   27   28 ar
  59   27   29 ar
  60   28   32 ar
  61   29   30 ar
  62   29   77 1
  63   30   31 ar
  64   30   50 1
  65   31   32 ar
  66   31   33 1
  67   32   78 1
  68   34   35 ar
  69   34   36 ar
  70   34   44 1
  71   35   41 1
  72   35   39 ar
  73   36   37 ar
  74   36   79 1
  75   37   38 ar
  76   37   80 1
  77   38   39 ar
  78   38   40 1
  79   39   81 1
  80   40   43 1
  81   41   42 1
  82   42   82 1
  83   42   83 1
  84   42   84 1
  85   43   85 1
  86   43   86 1
  87   43   87 1
  88   44   45 2
  89   44   46 2
  90   47   49 1
  91   48   49 1
  92   48   88 1
  93   48   89 1
  94   48   90 1
  95   49   91 1
  96   49   92 1
  97   50   51 3

#	End of record

