#	Name: ASD01811429
#	Creating user name:	WinNT
#	Creation time:	15. 06. 2019 19:26

#	Modifying user name:	WinNT
#	Modification time:	15. 06. 2019 19:26

#	Program:	/corina/corina34_cracker 3.40 0067  02.08.2006

@<TRIPOS>MOLECULE
ASD01811429
  60   62    0    0    0
SMALL
NO_CHARGES


@<TRIPOS>ATOM
   1 N1             0.0002     1.3305    -0.4618 N.am    
   2 C2             0.1810     0.2193    -1.2028 C.2     
   3 O3             1.2719    -0.0198    -1.6836 O.2     
   4 N4            -0.8472    -0.6268    -1.4108 N.am    
   5 C5            -0.6506    -1.8346    -2.2163 C.3     
   6 C6            -1.9648    -2.6140    -2.2958 C.3     
   7 C7            -3.0037    -1.7861    -3.0548 C.3     
   8 C8            -1.7302    -3.9355    -3.0304 C.3     
   9 C9             0.9141     3.5291    -0.0227 C.ar    
  10 C10            1.0895     2.1576    -0.1629 C.ar    
  11 C11            2.3599     1.6175    -0.0022 C.ar    
  12 C12            3.4155     2.4861     0.2963 C.ar    
  13 C13            3.1527     3.8510     0.4199 C.ar    
  14 N14            1.9320     4.3183     0.2595 N.ar    
  15 C15           -0.4590     4.1240    -0.2015 C.3     
  16 C16            4.7875     1.9660     0.4783 C.2     
  17 O17            5.7250     2.5236    -0.0582 O.2     
  18 N18            4.9988     0.8737     1.2390 N.am    
  19 C19            3.8683     0.1303     1.8117 C.3     
  20 C20            4.0790    -0.0002     3.3234 C.3     
  21 C21            5.4470    -0.6321     3.5910 C.3     
  22 C22            6.5467     0.2699     3.0261 C.3     
  23 C23            6.3637     0.4002     1.5063 C.3     
  24 C24            5.6436    -0.7933     5.0764 C.ar    
  25 C25            5.8467    -2.0530     5.6114 C.ar    
  26 C26            6.0274    -2.2078     6.9702 C.ar    
  27 C27            6.0054    -1.0895     7.8060 C.ar    
  28 C28            5.8004     0.1789     7.2593 C.ar    
  29 C29            5.6259     0.3197     5.8982 C.ar    
  30 C30            6.1918    -1.2427     9.2176 C.1     
  31 N31            6.3396    -1.3643    10.3373 N.1     
  32 H32           -0.8855     1.5592    -0.1389 H       
  33 H33           -1.7175    -0.4360    -1.0272 H       
  34 H34           -0.3333    -1.5538    -3.2206 H       
  35 H35            0.1146    -2.4586    -1.7546 H       
  36 H36           -2.3279    -2.8178    -1.2885 H       
  37 H37           -2.6405    -1.5823    -4.0621 H       
  38 H38           -3.9399    -2.3414    -3.1115 H       
  39 H39           -3.1708    -0.8446    -2.5315 H       
  40 H40           -0.9901    -4.5254    -2.4897 H       
  41 H41           -2.6664    -4.4908    -3.0871 H       
  42 H42           -1.3670    -3.7318    -4.0377 H       
  43 H43            2.5279     0.5555    -0.1046 H       
  44 H44            3.9592     4.5314     0.6501 H       
  45 H45           -0.9753     4.1412     0.7583 H       
  46 H46           -0.3675     5.1408    -0.5832 H       
  47 H47           -1.0272     3.5201    -0.9090 H       
  48 H48            2.9407     0.6688     1.6172 H       
  49 H49            3.8183    -0.8617     1.3627 H       
  50 H50            4.0382     0.9873     3.7830 H       
  51 H51            3.2977    -0.6315     3.7465 H       
  52 H52            5.4960    -1.6091     3.1103 H       
  53 H53            6.4827     1.2549     3.4885 H       
  54 H54            7.5217    -0.1691     3.2376 H       
  55 H55            6.5131    -0.5702     1.0330 H       
  56 H56            7.0832     1.1169     1.1104 H       
  57 H57            5.8635    -2.9171     4.9638 H       
  58 H58            6.1851    -3.1917     7.3867 H       
  59 H59            5.7822     1.0480     7.9001 H       
  60 H60            5.4713     1.3006     5.4735 H       
@<TRIPOS>BOND
   1    1    2 am
   2    1   10 1
   3    1   32 1
   4    2    3 2
   5    2    4 am
   6    4    5 1
   7    4   33 1
   8    5    6 1
   9    5   34 1
  10    5   35 1
  11    6    7 1
  12    6    8 1
  13    6   36 1
  14    7   37 1
  15    7   38 1
  16    7   39 1
  17    8   40 1
  18    8   41 1
  19    8   42 1
  20    9   10 ar
  21    9   14 ar
  22    9   15 1
  23   10   11 ar
  24   11   12 ar
  25   11   43 1
  26   12   13 ar
  27   12   16 1
  28   13   14 ar
  29   13   44 1
  30   15   45 1
  31   15   46 1
  32   15   47 1
  33   16   17 2
  34   16   18 am
  35   18   19 1
  36   18   23 1
  37   19   20 1
  38   19   48 1
  39   19   49 1
  40   20   21 1
  41   20   50 1
  42   20   51 1
  43   21   22 1
  44   21   24 1
  45   21   52 1
  46   22   23 1
  47   22   53 1
  48   22   54 1
  49   23   55 1
  50   23   56 1
  51   24   25 ar
  52   24   29 ar
  53   25   26 ar
  54   25   57 1
  55   26   27 ar
  56   26   58 1
  57   27   28 ar
  58   27   30 1
  59   28   29 ar
  60   28   59 1
  61   29   60 1
  62   30   31 3

#	End of record

