#	Name: ASD07930360
#	Creating user name:	WinNT
#	Creation time:	15. 06. 2019 21:12

#	Modifying user name:	WinNT
#	Modification time:	15. 06. 2019 21:12

#	Program:	/corina/corina34_cracker 3.40 0067  02.08.2006

@<TRIPOS>MOLECULE
ASD07930360
  49   50    0    0    0
SMALL
NO_CHARGES


@<TRIPOS>ATOM
   1 N1            -0.0058     1.4467     0.2170 N.pl3   
   2 C2             0.0021    -0.0041     0.0020 C.3     
   3 C3             0.8305    -0.6733     1.1080 C.3     
   4 N4             2.1538     1.7084     1.1104 N.am    
   5 C5             1.1734     2.1401     0.2464 C.2     
   6 C6            -1.4106    -0.5271     0.0446 C.ar    
   7 C7            -2.1695    -0.3779     1.1925 C.ar    
   8 C8             0.6229    -0.3155    -1.3612 C.3     
   9 C9            -1.9504    -1.1507    -1.0644 C.ar    
  10 C10           -3.2464    -1.6307    -1.0271 C.ar    
  11 C11           -4.0050    -1.4879     0.1194 C.ar    
  12 C12           -3.4691    -0.8596     1.2301 C.ar    
  13 F13           -1.6443     0.2361     2.2753 F       
  14 F14           -4.2098    -0.7201     2.3513 F       
  15 C15            2.8667     2.6381     1.9900 C.3     
  16 H16            2.4918     3.6490     1.8304 H       
  17 H17            2.7060     2.3507     3.0291 H       
  18 H18            3.9327     2.6061     1.7648 H       
  19 S19            2.4898     0.0763     1.1075 S.o2    
  20 O20            3.1485    -0.1555     2.3451 O.2     
  21 O21            3.1459    -0.1516    -0.1322 O.2     
  22 N22           -3.8223    -2.2977    -2.2163 N.pl3   
  23 O23           -3.1545    -2.4234    -3.2271 O.2     
  24 O24           -4.9640    -2.7208    -2.1841 O.2     
  25 N25            1.3656     3.1935    -0.5325 N.2     
  26 O26            0.5936     4.6690    -2.1591 O.3     
  27 C27           -0.4819     5.0419    -3.0230 C.3     
  28 C28           -1.7189     5.3706    -2.1847 C.3     
  29 C29           -0.0777     6.2711    -3.8393 C.3     
  30 C30           -0.8007     3.8831    -3.9698 C.3     
  31 C31            0.3978     3.5954    -1.3652 C.2     
  32 O32           -0.6590     2.9926    -1.4064 O.2     
  33 H33           -0.8470     1.9152     0.3343 H       
  34 H34            0.3535    -0.5103     2.0745 H       
  35 H35            0.9099    -1.7426     0.9121 H       
  36 H36            1.6454     0.0610    -1.3893 H       
  37 H37            0.6284    -1.3939    -1.5202 H       
  38 H38            0.0373     0.1644    -2.1453 H       
  39 H39           -1.3593    -1.2628    -1.9613 H       
  40 H40           -5.0175    -1.8630     0.1472 H       
  41 H41           -1.4918     6.1961    -1.5101 H       
  42 H42           -2.5393     5.6550    -2.8436 H       
  43 H43           -2.0069     4.4949    -1.6031 H       
  44 H44            0.8036     6.0369    -4.4366 H       
  45 H45           -0.8980     6.5555    -4.4983 H       
  46 H46            0.1495     7.0966    -3.1648 H       
  47 H47           -1.0887     3.0074    -3.3882 H       
  48 H48           -1.6211     4.1675    -4.6287 H       
  49 H49            0.0805     3.6489    -4.5670 H       
@<TRIPOS>BOND
   1    1    2 1
   2    1    5 1
   3    1   33 1
   4    2    3 1
   5    2    6 1
   6    2    8 1
   7    3   19 1
   8    3   34 1
   9    3   35 1
  10    4    5 1
  11    4   15 1
  12    4   19 am
  13    5   25 2
  14    6    9 ar
  15    6    7 ar
  16    7   13 1
  17    7   12 ar
  18    8   36 1
  19    8   37 1
  20    8   38 1
  21    9   10 ar
  22    9   39 1
  23   10   11 ar
  24   10   22 1
  25   11   12 ar
  26   11   40 1
  27   12   14 1
  28   15   16 1
  29   15   17 1
  30   15   18 1
  31   19   20 2
  32   19   21 2
  33   22   23 2
  34   22   24 2
  35   25   31 1
  36   26   27 1
  37   26   31 1
  38   27   28 1
  39   27   29 1
  40   27   30 1
  41   28   41 1
  42   28   42 1
  43   28   43 1
  44   29   44 1
  45   29   45 1
  46   29   46 1
  47   30   47 1
  48   30   48 1
  49   30   49 1
  50   31   32 2

#	End of record

