#	Name: ASD02198599
#	Creating user name:	WinNT
#	Creation time:	15. 06. 2019 20:19

#	Modifying user name:	WinNT
#	Modification time:	15. 06. 2019 20:19

#	Program:	/corina/corina34_cracker 3.40 0067  02.08.2006

@<TRIPOS>MOLECULE
ASD02198599
  46   49    0    0    0
SMALL
NO_CHARGES


@<TRIPOS>ATOM
   1 C1             0.1369     0.5968    -0.8780 C.2     
   2 C2             0.5233    -0.7017    -0.9530 C.2     
   3 N3             1.8160    -1.0520    -0.7678 N.pl3   
   4 N4             2.7452    -0.2061    -0.5144 N.2     
   5 C5             2.5077     1.0842    -0.4145 C.2     
   6 C6             1.1298     1.5668    -0.6004 C.2     
   7 C7             2.1565    -2.4061    -0.8569 C.ar    
   8 C8             1.1596    -3.3669    -0.9753 C.ar    
   9 C9             1.4955    -4.7023    -1.0627 C.ar    
  10 C10            2.8306    -5.0864    -1.0326 C.ar    
  11 C11            3.8275    -4.1256    -0.9146 C.ar    
  12 C12            3.4919    -2.7898    -0.8326 C.ar    
  13 C13            3.6031     2.0304    -0.1209 C.2     
  14 N14            4.6388     1.8293     0.7477 N.pl3   
  15 N15            5.4458     2.9735     0.7217 N.2     
  16 C16            4.9305     3.8330    -0.1208 C.2     
  17 C17            3.7765     3.2795    -0.6756 C.2     
  18 C18            4.8543     0.6842     1.5251 C.ar    
  19 C19            3.7888     0.0710     2.1709 C.ar    
  20 O20            0.8546     2.7546    -0.5187 O.2     
  21 C21            6.1330     0.1564     1.6469 C.ar    
  22 C22            6.3421    -0.9730     2.4137 C.ar    
  23 C23            5.2799    -1.5783     3.0598 C.ar    
  24 C24            4.0045    -1.0583     2.9362 C.ar    
  25 N25            3.1706    -6.4386    -1.1206 N.pl3   
  26 C26            2.1198    -7.4594    -1.1232 C.3     
  27 C27            4.5779    -6.8357    -1.2103 C.3     
  28 H28           -0.8938     0.8815    -1.0295 H       
  29 H29           -0.2112    -1.4651    -1.1629 H       
  30 H30            0.1220    -3.0684    -0.9987 H       
  31 H31            0.7206    -5.4491    -1.1540 H       
  32 H32            4.8651    -4.4241    -0.8910 H       
  33 H33            4.2667    -2.0430    -0.7412 H       
  34 H34            5.3340     4.8081    -0.3507 H       
  35 H35            3.1317     3.7483    -1.4041 H       
  36 H36            2.7926     0.4769     2.0750 H       
  37 H37            6.9630     0.6285     1.1423 H       
  38 H38            7.3363    -1.3842     2.5086 H       
  39 H39            5.4460    -2.4615     3.6589 H       
  40 H40            3.1769    -1.5333     3.4421 H       
  41 H41            1.8091    -7.6585    -2.1488 H       
  42 H42            2.5029    -8.3763    -0.6751 H       
  43 H43            1.2656    -7.1030    -0.5475 H       
  44 H44            5.2114    -5.9551    -1.1039 H       
  45 H45            4.8064    -7.5458    -0.4156 H       
  46 H46            4.7629    -7.3016    -2.1782 H       
@<TRIPOS>BOND
   1    1    2 2
   2    1    6 1
   3    1   28 1
   4    2    3 1
   5    2   29 1
   6    3    4 1
   7    3    7 1
   8    4    5 2
   9    5    6 1
  10    5   13 1
  11    6   20 2
  12    7    8 ar
  13    7   12 ar
  14    8    9 ar
  15    8   30 1
  16    9   10 ar
  17    9   31 1
  18   10   11 ar
  19   10   25 1
  20   11   12 ar
  21   11   32 1
  22   12   33 1
  23   13   14 1
  24   13   17 2
  25   14   15 1
  26   14   18 1
  27   15   16 2
  28   16   17 1
  29   16   34 1
  30   17   35 1
  31   18   21 ar
  32   18   19 ar
  33   19   24 ar
  34   19   36 1
  35   21   22 ar
  36   21   37 1
  37   22   23 ar
  38   22   38 1
  39   23   24 ar
  40   23   39 1
  41   24   40 1
  42   25   26 1
  43   25   27 1
  44   26   41 1
  45   26   42 1
  46   26   43 1
  47   27   44 1
  48   27   45 1
  49   27   46 1

#	End of record

