#	Name: ASD01510095
#	Creating user name:	WinNT
#	Creation time:	15. 06. 2019 19:21

#	Modifying user name:	WinNT
#	Modification time:	15. 06. 2019 19:21

#	Program:	/corina/corina34_cracker 3.40 0067  02.08.2006

@<TRIPOS>MOLECULE
ASD01510095
  44   46    0    0    0
SMALL
NO_CHARGES


@<TRIPOS>ATOM
   1 C1             0.0649     1.4177     0.2838 C.3     
   2 O2             0.0586    -0.0085     0.1946 O.3     
   3 C3            -1.1401    -0.6283     0.3271 C.ar    
   4 N4            -2.2444     0.0780     0.5299 N.ar    
   5 C5            -3.4180    -0.5231     0.6600 C.ar    
   6 N6            -3.5381    -1.8396     0.5944 N.ar    
   7 C7            -2.4795    -2.6113     0.3940 C.ar    
   8 C8            -1.2318    -2.0229     0.2461 C.ar    
   9 S9             0.2045    -3.0077    -0.0221 S.3     
  10 C10           -0.4080    -4.6525     0.1335 C.ar    
  11 C11           -0.8208    -5.3512    -0.9954 C.ar    
  12 C12           -1.3011    -6.6408    -0.8740 C.ar    
  13 C13           -1.3725    -7.2407     0.3685 C.ar    
  14 C14           -0.9614    -6.5480     1.5015 C.ar    
  15 C15           -0.4736    -5.2547     1.3831 C.ar    
  16 N16           -1.0345    -7.1554     2.7571 N.pl3   
  17 N17           -4.5511     0.2480     0.8710 N.3     
  18 C18           -5.7481    -0.5963     0.9891 C.3     
  19 C19           -6.9612     0.2838     1.2998 C.3     
  20 N20           -7.1263     1.2803     0.2325 N.3     
  21 C21           -5.9293     2.1246     0.1143 C.3     
  22 C22           -4.7162     1.2445    -0.1963 C.3     
  23 C23           -8.3266     2.0972     0.4560 C.3     
  24 H24            1.0839     1.7849     0.1611 H       
  25 H25           -0.5680     1.8336    -0.5000 H       
  26 H26           -0.3162     1.7224     1.2585 H       
  27 H27           -2.5873    -3.6847     0.3424 H       
  28 H28           -0.7663    -4.8852    -1.9681 H       
  29 H29           -1.6218    -7.1811    -1.7523 H       
  30 H30           -1.7485    -8.2490     0.4597 H       
  31 H31           -0.1533    -4.7145     2.2618 H       
  32 H32           -1.3722    -8.0610     2.8389 H       
  33 H33           -0.7476    -6.6716     3.5474 H       
  34 H34           -5.9137    -1.1257     0.0509 H       
  35 H35           -5.6065    -1.3175     1.7940 H       
  36 H36           -7.8552    -0.3370     1.3592 H       
  37 H37           -6.8073     0.7923     2.2515 H       
  38 H38           -6.0709     2.8459    -0.6905 H       
  39 H39           -5.7637     2.6541     1.0526 H       
  40 H40           -3.8223     1.8653    -0.2557 H       
  41 H41           -4.8701     0.7360    -1.1480 H       
  42 H42           -8.2395     2.6177     1.4097 H       
  43 H43           -8.4249     2.8263    -0.3482 H       
  44 H44           -9.2062     1.4536     0.4724 H       
@<TRIPOS>BOND
   1    1    2 1
   2    1   24 1
   3    1   25 1
   4    1   26 1
   5    2    3 1
   6    3    4 ar
   7    3    8 ar
   8    4    5 ar
   9    5    6 ar
  10    5   17 1
  11    6    7 ar
  12    7    8 ar
  13    7   27 1
  14    8    9 1
  15    9   10 1
  16   10   11 ar
  17   10   15 ar
  18   11   12 ar
  19   11   28 1
  20   12   13 ar
  21   12   29 1
  22   13   14 ar
  23   13   30 1
  24   14   15 ar
  25   14   16 1
  26   15   31 1
  27   16   32 1
  28   16   33 1
  29   17   18 1
  30   17   22 1
  31   18   19 1
  32   18   34 1
  33   18   35 1
  34   19   20 1
  35   19   36 1
  36   19   37 1
  37   20   21 1
  38   20   23 1
  39   21   22 1
  40   21   38 1
  41   21   39 1
  42   22   40 1
  43   22   41 1
  44   23   42 1
  45   23   43 1
  46   23   44 1

#	End of record

