#	Name: ASD00450067
#	Creating user name:	WinNT
#	Creation time:	15. 06. 2019 18:36

#	Modifying user name:	WinNT
#	Modification time:	15. 06. 2019 18:36

#	Program:	/corina/corina34_cracker 3.40 0067  02.08.2006

@<TRIPOS>MOLECULE
ASD00450067
  44   46    0    0    0
SMALL
NO_CHARGES


@<TRIPOS>ATOM
   1 C1            -0.5522     1.8701     0.4281 C.ar    
   2 C2            -0.9287     0.5910     0.8651 C.ar    
   3 C3             0.0373    -0.2986     1.3026 C.ar    
   4 C4             1.3734     0.0694     1.3105 C.ar    
   5 C5             1.7571     1.3288     0.8821 C.ar    
   6 C6             0.8053     2.2349     0.4395 C.ar    
   7 C7            -1.5699     2.8203    -0.0442 C.2     
   8 O8            -2.1027     3.5813     0.7412 O.2     
   9 N9            -1.9127     2.8481    -1.3474 N.am    
  10 N10            1.1917     3.4981     0.0090 N.pl3   
  11 C11            2.1883     4.1974     0.6982 C.ar    
  12 C12            2.6622     5.4067     0.2007 C.ar    
  13 C13            2.7026     3.6886     1.8833 C.ar    
  14 C14            3.6866     4.3812     2.5617 C.ar    
  15 C15            4.1606     5.5810     2.0623 C.ar    
  16 C16            3.6474     6.0948     0.8849 C.ar    
  17 F17            2.3079    -0.8068     1.7396 F       
  18 F18            2.1611     5.9081    -0.9494 F       
  19 I19            5.6531     6.6265     3.0960 I       
  20 O20           -2.2357     0.2274     0.8593 O.3     
  21 C21           -2.5445    -1.0902     1.3180 C.3     
  22 C22           -4.0556    -1.3167     1.2388 C.3     
  23 N23           -4.4890    -1.3207    -0.1705 N.3     
  24 C24           -5.0717    -2.6438    -0.4800 C.3     
  25 C25           -5.5360    -3.2016     0.8885 C.3     
  26 C26           -4.4114    -2.6968     1.8305 C.3     
  27 H27           -0.2514    -1.2832     1.6395 H       
  28 H28            2.8009     1.6062     0.8924 H       
  29 H29           -1.4879     2.2412    -1.9737 H       
  30 H30           -2.5842     3.4749    -1.6590 H       
  31 H31            0.7705     3.8951    -0.7694 H       
  32 H32            2.3332     2.7522     2.2747 H       
  33 H33            4.0862     3.9855     3.4838 H       
  34 H34            4.0163     7.0340     0.4999 H       
  35 H35           -2.0342    -1.8220     0.6917 H       
  36 H36           -2.2140    -1.2023     2.3506 H       
  37 H37           -4.5773    -0.5308     1.7849 H       
  38 H38           -5.1541    -0.5826    -0.3464 H       
  39 H39           -5.9216    -2.5359    -1.1539 H       
  40 H40           -4.3180    -3.2968    -0.9200 H       
  41 H41           -6.5012    -2.7830     1.1736 H       
  42 H42           -5.5735    -4.2908     0.8738 H       
  43 H43           -3.5506    -3.3647     1.7954 H       
  44 H44           -4.7802    -2.5951     2.8511 H       
@<TRIPOS>BOND
   1    1    2 ar
   2    1    6 ar
   3    1    7 1
   4    2    3 ar
   5    2   20 1
   6    3    4 ar
   7    3   27 1
   8    4    5 ar
   9    4   17 1
  10    5    6 ar
  11    5   28 1
  12    6   10 1
  13    7    8 2
  14    7    9 am
  15    9   29 1
  16    9   30 1
  17   10   11 1
  18   10   31 1
  19   11   13 ar
  20   11   12 ar
  21   12   16 ar
  22   12   18 1
  23   13   14 ar
  24   13   32 1
  25   14   15 ar
  26   14   33 1
  27   15   16 ar
  28   15   19 1
  29   16   34 1
  30   20   21 1
  31   21   22 1
  32   21   35 1
  33   21   36 1
  34   22   23 1
  35   22   26 1
  36   22   37 1
  37   23   24 1
  38   23   38 1
  39   24   25 1
  40   24   39 1
  41   24   40 1
  42   25   26 1
  43   25   41 1
  44   25   42 1
  45   26   43 1
  46   26   44 1

#	End of record

