#	Name: ASD01340007
#	Creating user name:	WinNT
#	Creation time:	15. 06. 2019 19:16

#	Modifying user name:	WinNT
#	Modification time:	15. 06. 2019 19:16

#	Program:	/corina/corina34_cracker 3.40 0067  02.08.2006

@<TRIPOS>MOLECULE
ASD01340007
  36   37    0    0    0
SMALL
NO_CHARGES


@<TRIPOS>ATOM
   1 C1            -1.6948     1.1046     3.1769 C.ar    
   2 C2            -1.7364    -0.2867     3.0312 C.ar    
   3 N3            -2.3135    -0.8275     1.9659 N.ar    
   4 C4            -2.8522    -0.0472     1.0369 C.ar    
   5 C5            -2.8087     1.3476     1.1863 C.ar    
   6 N6            -2.2321     1.8822     2.2616 N.ar    
   7 Cl7           -0.9383     1.8063     4.5730 Cl      
   8 N8            -3.4546    -0.6075    -0.0758 N.pl3   
   9 C9            -3.4059     2.2209     0.1558 C.2     
  10 N10           -3.4713     3.5454     0.3553 N.2     
  11 O11           -3.8392     1.7379    -0.8757 O.2     
  12 C12           -4.6279     4.1772     0.2306 C.2     
  13 N13           -4.6755     5.5373     0.3226 N.pl3   
  14 N14           -5.7722     3.4681     0.0101 N.pl3   
  15 N15           -1.1738    -1.1003     4.0004 N.pl3   
  16 C16           -5.9555     6.2365     0.1846 C.3     
  17 C17           -5.7349     7.7206     0.3252 C.ar    
  18 C18           -5.7685     8.5330    -0.7923 C.ar    
  19 C19           -5.5667     9.8946    -0.6640 C.ar    
  20 C20           -5.3309    10.4447     0.5832 C.ar    
  21 C21           -5.2971     9.6319     1.7023 C.ar    
  22 C22           -5.5044     8.2705     1.5740 C.ar    
  23 Cl23          -5.4627     7.2499     2.9777 Cl      
  24 Cl24          -5.0769    12.1545     0.7440 Cl      
  25 H25           -3.4096    -1.5656    -0.2210 H       
  26 H26           -3.9218    -0.0422    -0.7107 H       
  27 H27           -3.8618     6.0416     0.4794 H       
  28 H28           -5.7513     2.4983     0.0199 H       
  29 H29           -6.6067     3.9335    -0.1564 H       
  30 H30           -0.7514    -0.7058     4.7794 H       
  31 H31           -1.2022    -2.0647     3.9002 H       
  32 H32           -6.3818     6.0238    -0.7957 H       
  33 H33           -6.6410     5.8959     0.9606 H       
  34 H34           -5.9522     8.1039    -1.7662 H       
  35 H35           -5.5927    10.5289    -1.5377 H       
  36 H36           -5.1128    10.0609     2.6761 H       
@<TRIPOS>BOND
   1    1    2 ar
   2    1    7 1
   3    1    6 ar
   4    2    3 ar
   5    2   15 1
   6    3    4 ar
   7    4    5 ar
   8    4    8 1
   9    5    6 ar
  10    5    9 1
  11    8   25 1
  12    8   26 1
  13    9   10 1
  14    9   11 2
  15   10   12 2
  16   12   13 1
  17   12   14 1
  18   13   16 1
  19   13   27 1
  20   14   28 1
  21   14   29 1
  22   15   30 1
  23   15   31 1
  24   16   17 1
  25   16   32 1
  26   16   33 1
  27   17   18 ar
  28   17   22 ar
  29   18   19 ar
  30   18   34 1
  31   19   20 ar
  32   19   35 1
  33   20   21 ar
  34   20   24 1
  35   21   22 ar
  36   21   36 1
  37   22   23 1

#	End of record

