#	Name: ASD01700005
#	Creating user name:	WinNT
#	Creation time:	15. 06. 2019 19:22

#	Modifying user name:	WinNT
#	Modification time:	15. 06. 2019 19:22

#	Program:	/corina/corina34_cracker 3.40 0067  02.08.2006

@<TRIPOS>MOLECULE
ASD01700005
  65   69    0    0    0
SMALL
NO_CHARGES


@<TRIPOS>ATOM
   1 C1            -0.0006     1.3732    -0.0426 C.ar    
   2 C2            -1.1396     1.9409    -0.6427 C.ar    
   3 C3            -2.3388     1.2479    -0.6159 C.ar    
   4 C4            -2.4020     0.0010     0.0031 C.ar    
   5 C5            -1.2604    -0.5534     0.5975 C.ar    
   6 C6            -0.0755     0.1203     0.5704 C.ar    
   7 C7             1.0753     2.3476    -0.2465 C.2     
   8 C8             0.5299     3.3732    -0.9185 C.2     
   9 O9            -0.7714     3.1346    -1.1514 O.3     
  10 C10           -3.6784    -0.7397     0.0331 C.2     
  11 N11           -4.8429    -0.0712     0.1496 N.am    
  12 O12           -3.6793    -1.9530    -0.0471 O.2     
  13 C13           -6.1377    -0.7655     0.0522 C.3     
  14 C14           -4.8715     1.3762     0.3844 C.3     
  15 C15           -5.8890     1.6982     1.4509 C.ar    
  16 C16           -6.7974     0.7669     1.9069 C.ar    
  17 C17           -6.8370    -0.6457     1.4052 C.3     
  18 C18           -5.8892     2.9857     1.9732 C.ar    
  19 C19           -6.7956     3.3519     2.9448 C.ar    
  20 C20           -7.7252     2.4167     3.4074 C.ar    
  21 C21           -7.7188     1.1253     2.8813 C.ar    
  22 Cl22          -8.8706    -0.0426     3.4497 Cl      
  23 Cl23          -6.7822     4.9636     3.5898 Cl      
  24 C24           -8.7061     2.7929     4.4454 C.2     
  25 N25           -8.4040     2.6297     5.7488 N.am    
  26 O26           -9.7860     3.2496     4.1243 O.2     
  27 C27           -9.3770     3.0028     6.7785 C.3     
  28 C28           -9.2486     4.4734     7.0816 C.2     
  29 C29           -9.1094     2.1948     8.0498 C.3     
  30 C30           -9.3574     0.7334     7.7777 C.ar    
  31 C31           -8.3271    -0.0702     7.3272 C.ar    
  32 C32          -10.6141     0.1954     7.9841 C.ar    
  33 C33          -10.8416    -1.1448     7.7346 C.ar    
  34 C34           -9.8125    -1.9474     7.2782 C.ar    
  35 C35           -8.5547    -1.4109     7.0776 C.ar    
  36 O36          -10.0454     5.0413     8.0005 O.3     
  37 O37           -8.4285     5.1413     6.4975 O.2     
  38 S38          -12.4430    -1.8307     7.9988 S.o2    
  39 O39          -12.1968    -3.2061     8.2575 O.2     
  40 O40          -13.0247    -0.9920     8.9874 O.2     
  41 C41          -13.2918    -1.6241     6.4090 C.3     
  42 H42           -3.2208     1.6722    -1.0723 H       
  43 H43           -1.3184    -1.5202     1.0753 H       
  44 H44            0.8021    -0.3105     1.0293 H       
  45 H45            2.1012     2.2583     0.0790 H       
  46 H46            1.0603     4.2618    -1.2273 H       
  47 H47           -6.7486    -0.2999    -0.7212 H       
  48 H48           -5.9757    -1.8163    -0.1875 H       
  49 H49           -3.8865     1.7103     0.7103 H       
  50 H50           -5.1401     1.8883    -0.5395 H       
  51 H51           -7.8755    -0.9576     1.2940 H       
  52 H52           -6.3435    -1.2964     2.1271 H       
  53 H53           -5.1707     3.7076     1.6141 H       
  54 H54           -7.5424     2.2653     6.0050 H       
  55 H55          -10.3845     2.7925     6.4196 H       
  56 H56           -8.0737     2.3362     8.3588 H       
  57 H57           -9.7749     2.5347     8.8432 H       
  58 H58           -7.3444     0.3492     7.1699 H       
  59 H59          -11.4180     0.8224     8.3407 H       
  60 H60           -9.9902    -2.9947     7.0835 H       
  61 H61           -7.7508    -2.0378     6.7210 H       
  62 H62           -9.9259     5.9875     8.1607 H       
  63 H63          -12.7437    -2.1575     5.6324 H       
  64 H64          -14.3024    -2.0260     6.4818 H       
  65 H65          -13.3394    -0.5645     6.1576 H       
@<TRIPOS>BOND
   1    1    2 ar
   2    1    7 1
   3    1    6 ar
   4    2    3 ar
   5    2    9 1
   6    3    4 ar
   7    3   42 1
   8    4    5 ar
   9    4   10 1
  10    5    6 ar
  11    5   43 1
  12    6   44 1
  13    7    8 2
  14    7   45 1
  15    8    9 1
  16    8   46 1
  17   10   11 am
  18   10   12 2
  19   11   13 1
  20   11   14 1
  21   13   17 1
  22   13   47 1
  23   13   48 1
  24   14   15 1
  25   14   49 1
  26   14   50 1
  27   15   16 ar
  28   15   18 ar
  29   16   17 1
  30   16   21 ar
  31   17   51 1
  32   17   52 1
  33   18   19 ar
  34   18   53 1
  35   19   20 ar
  36   19   23 1
  37   20   21 ar
  38   20   24 1
  39   21   22 1
  40   24   25 am
  41   24   26 2
  42   25   27 1
  43   25   54 1
  44   27   28 1
  45   27   29 1
  46   27   55 1
  47   28   36 1
  48   28   37 2
  49   29   30 1
  50   29   56 1
  51   29   57 1
  52   30   31 ar
  53   30   32 ar
  54   31   35 ar
  55   31   58 1
  56   32   33 ar
  57   32   59 1
  58   33   34 ar
  59   33   38 1
  60   34   35 ar
  61   34   60 1
  62   35   61 1
  63   36   62 1
  64   38   39 2
  65   38   40 2
  66   38   41 1
  67   41   63 1
  68   41   64 1
  69   41   65 1

#	End of record

