#	Name: ASD03090289
#	Creating user name:	WinNT
#	Creation time:	15. 06. 2019 20:28

#	Modifying user name:	WinNT
#	Modification time:	15. 06. 2019 20:28

#	Program:	/corina/corina34_cracker 3.40 0067  02.08.2006

@<TRIPOS>MOLECULE
ASD03090289
  55   57    0    0    0
SMALL
NO_CHARGES


@<TRIPOS>ATOM
   1 N1             0.4459     1.5131     1.4689 N.ar    
   2 C2             0.4084     0.1947     1.4355 C.ar    
   3 C3             1.5351    -0.5384     1.1251 C.ar    
   4 C4             2.7277     0.1370     0.8434 C.ar    
   5 C5             2.7214     1.5350     0.8901 C.ar    
   6 C6             1.5488     2.1885     1.2101 C.ar    
   7 C7             3.9617    -0.6072     0.5059 C.2     
   8 N8             5.7412    -3.4562    -0.5286 N.pl3   
   9 C9             4.8141    -4.4466    -0.8734 C.ar    
  10 C10            3.5983    -4.0921    -1.4429 C.ar    
  11 C11            2.6843    -5.0700    -1.7833 C.ar    
  12 C12            2.9804    -6.4058    -1.5563 C.ar    
  13 C13            4.1948    -6.7609    -0.9874 C.ar    
  14 C14            5.1120    -5.7850    -0.6513 C.ar    
  15 N15            4.0262    -1.8633     0.1123 N.2     
  16 C16            5.2978    -2.2025    -0.1034 C.2     
  17 N17            6.0660    -1.1674     0.1492 N.2     
  18 N18            5.2207    -0.1167     0.5413 N.pl3   
  19 C19            5.6242     1.2390     0.9225 C.3     
  20 C20            5.7301     2.1109    -0.3304 C.3     
  21 C21            6.1452     3.5055     0.0617 C.2     
  22 O22            2.0797    -7.3680    -1.8914 O.3     
  23 C23            0.8496    -6.9309    -2.4726 C.3     
  24 C24           -0.8827    -0.5200     1.7409 C.3     
  25 O25            6.3374     3.7755     1.2284 O.2     
  26 N26            6.3028     4.4527    -0.8840 N.am    
  27 C27            6.7063     5.8084    -0.5028 C.3     
  28 C28            6.0707     4.1265    -2.2932 C.3     
  29 C29            4.5153    -8.2127    -0.7408 C.3     
  30 F30            5.7857    -8.3185    -0.1645 F       
  31 F31            3.5630    -8.7598     0.1258 F       
  32 F32            4.4947    -8.9075    -1.9549 F       
  33 H33            1.4972    -1.6175     1.1002 H       
  34 H34            3.6209     2.0945     0.6797 H       
  35 H35            1.5339     3.2678     1.2484 H       
  36 H36            6.6918    -3.6410    -0.5850 H       
  37 H37            3.3674    -3.0519    -1.6193 H       
  38 H38            1.7385    -4.7944    -2.2259 H       
  39 H39            6.0575    -6.0617    -0.2087 H       
  40 H40            4.8813     1.6627     1.5982 H       
  41 H41            6.5919     1.2029     1.4229 H       
  42 H42            6.4730     1.6871    -1.0061 H       
  43 H43            4.7625     2.1469    -0.8308 H       
  44 H44            0.2236    -7.7960    -2.6916 H       
  45 H45            0.3307    -6.2744    -1.7742 H       
  46 H46            1.0561    -6.3890    -3.3955 H       
  47 H47           -1.4475    -0.6599     0.8192 H       
  48 H48           -0.6641    -1.4916     2.1840 H       
  49 H49           -1.4704     0.0744     2.4405 H       
  50 H50            7.7940     5.8792    -0.5095 H       
  51 H51            6.2913     6.5241    -1.2125 H       
  52 H52            6.3339     6.0307     0.4972 H       
  53 H53            5.0255     4.3110    -2.5415 H       
  54 H54            6.7086     4.7495    -2.9202 H       
  55 H55            6.3053     3.0762    -2.4665 H       
@<TRIPOS>BOND
   1    1    2 ar
   2    1    6 ar
   3    2    3 ar
   4    2   24 1
   5    3    4 ar
   6    3   33 1
   7    4    5 ar
   8    4    7 1
   9    5    6 ar
  10    5   34 1
  11    6   35 1
  12    7   15 2
  13    7   18 1
  14    8    9 1
  15    8   16 1
  16    8   36 1
  17    9   10 ar
  18    9   14 ar
  19   10   11 ar
  20   10   37 1
  21   11   12 ar
  22   11   38 1
  23   12   13 ar
  24   12   22 1
  25   13   14 ar
  26   13   29 1
  27   14   39 1
  28   15   16 1
  29   16   17 2
  30   17   18 1
  31   18   19 1
  32   19   20 1
  33   19   40 1
  34   19   41 1
  35   20   21 1
  36   20   42 1
  37   20   43 1
  38   21   25 2
  39   21   26 am
  40   22   23 1
  41   23   44 1
  42   23   45 1
  43   23   46 1
  44   24   47 1
  45   24   48 1
  46   24   49 1
  47   26   27 1
  48   26   28 1
  49   27   50 1
  50   27   51 1
  51   27   52 1
  52   28   53 1
  53   28   54 1
  54   28   55 1
  55   29   30 1
  56   29   31 1
  57   29   32 1

#	End of record

