#	Name: ASD02390013
#	Creating user name:	WinNT
#	Creation time:	15. 06. 2019 20:20

#	Modifying user name:	WinNT
#	Modification time:	15. 06. 2019 20:20

#	Program:	/corina/corina34_cracker 3.40 0067  02.08.2006

@<TRIPOS>MOLECULE
ASD02390013
  39   41    0    0    0
SMALL
NO_CHARGES


@<TRIPOS>ATOM
   1 C1            -0.0165     1.3640     0.0095 C.2     
   2 C2             0.0021    -0.0041     0.0020 C.2     
   3 C3            -1.3232    -0.5970     0.0118 C.2     
   4 C4            -2.2937     0.3237     0.0266 C.2     
   5 S5            -1.6169     1.9440     0.0353 S.3     
   6 C6             1.2361    -0.7920    -0.0151 C.2     
   7 O7             1.7925    -1.1483    -1.1910 O.3     
   8 O8             1.7594    -1.1253     1.0312 O.2     
   9 N9             1.1120     2.1668     0.0031 N.am    
  10 C10            0.9845     3.5085     0.0115 C.2     
  11 O11           -0.1209     4.0139     0.0248 O.2     
  12 C12            2.1887     4.3652     0.0046 C.ar    
  13 C13            3.0153    -1.9290    -1.1320 C.3     
  14 C14           -1.5867    -2.0944     0.0056 C.3     
  15 C15           -3.0315    -2.3424     0.4448 C.3     
  16 C16           -3.9678    -1.4561    -0.3821 C.3     
  17 C17           -3.7761     0.0031     0.0397 C.3     
  18 C18            2.0603     5.7553     0.0133 C.ar    
  19 C19            3.1884     6.5492     0.0067 C.ar    
  20 C20            4.4452     5.9706    -0.0084 C.ar    
  21 C21            4.5796     4.5935    -0.0176 C.ar    
  22 C22            3.4598     3.7880    -0.0049 C.ar    
  23 H23            1.9941     1.7635    -0.0075 H       
  24 H24            2.8249    -2.8629    -0.6032 H       
  25 H25            3.3562    -2.1475    -2.1440 H       
  26 H26            3.7828    -1.3627    -0.6044 H       
  27 H27           -1.4379    -2.4874    -1.0001 H       
  28 H28           -0.9046    -2.5883     0.6977 H       
  29 H29           -3.2861    -3.3901     0.2847 H       
  30 H30           -3.1380    -2.0981     1.5017 H       
  31 H31           -3.7311    -1.5636    -1.4407 H       
  32 H32           -5.0015    -1.7538    -0.2062 H       
  33 H33           -4.1722     0.1480     1.0448 H       
  34 H34           -4.2979     0.6571    -0.6589 H       
  35 H35            1.0799     6.2082     0.0248 H       
  36 H36            3.0905     7.6247     0.0131 H       
  37 H37            5.3252     6.5966    -0.0135 H       
  38 H38            5.5635     4.1483    -0.0301 H       
  39 H39            3.5661     2.7132    -0.0120 H       
@<TRIPOS>BOND
   1    1    2 2
   2    1    9 1
   3    1    5 1
   4    2    3 1
   5    2    6 1
   6    3    4 2
   7    3   14 1
   8    4    5 1
   9    4   17 1
  10    6    7 1
  11    6    8 2
  12    7   13 1
  13    9   10 am
  14    9   23 1
  15   10   11 2
  16   10   12 1
  17   12   18 ar
  18   12   22 ar
  19   13   24 1
  20   13   25 1
  21   13   26 1
  22   14   15 1
  23   14   27 1
  24   14   28 1
  25   15   16 1
  26   15   29 1
  27   15   30 1
  28   16   17 1
  29   16   31 1
  30   16   32 1
  31   17   33 1
  32   17   34 1
  33   18   19 ar
  34   18   35 1
  35   19   20 ar
  36   19   36 1
  37   20   21 ar
  38   20   37 1
  39   21   22 ar
  40   21   38 1
  41   22   39 1

#	End of record

