#	Name: ASD01028846
#	Creating user name:	WinNT
#	Creation time:	15. 06. 2019 18:58

#	Modifying user name:	WinNT
#	Modification time:	15. 06. 2019 18:58

#	Program:	/corina/corina34_cracker 3.40 0067  02.08.2006

@<TRIPOS>MOLECULE
ASD01028846
  46   50    0    0    0
SMALL
NO_CHARGES


@<TRIPOS>ATOM
   1 N1            -0.0159     1.3215     0.0093 N.ar    
   2 C2             0.0021    -0.0041     0.0020 C.ar    
   3 C3             1.1080     2.0251     0.0024 C.ar    
   4 C4             2.3530     1.3891    -0.0134 C.ar    
   5 C5             2.4139     0.0090    -0.0214 C.ar    
   6 C6             1.2211    -0.7074    -0.0134 C.ar    
   7 O7             0.9282    -2.0224    -0.0175 O.3     
   8 C8            -0.4013    -2.2161    -0.0054 C.2     
   9 C9            -1.0406    -1.0376     0.0064 C.2     
  10 C10           -2.5314    -0.8178     0.0221 C.3     
  11 N11           -2.9928    -0.5024    -1.3321 N.pl3   
  12 C12           -4.3381    -0.2587    -1.5675 C.ar    
  13 C13           -5.2629    -0.3081    -0.5375 C.ar    
  14 C14           -6.6032    -0.0599    -0.8018 C.ar    
  15 N15           -7.0276     0.2232    -2.0115 N.ar    
  16 C16           -6.1898     0.2875    -3.0516 C.ar    
  17 C17           -4.8066     0.0540    -2.8675 C.ar    
  18 C18           -6.6588     0.5926    -4.3429 C.ar    
  19 C19           -5.7503     0.6438    -5.3671 C.ar    
  20 C20           -4.3977     0.3955    -5.1110 C.ar    
  21 N21           -3.9693     0.1189    -3.9037 N.ar    
  22 O22           -6.1621     0.9345    -6.6286 O.3     
  23 C23            1.0438     3.5022     0.0109 C.2     
  24 C24           -5.1595     0.9705    -7.6463 C.3     
  25 O25            2.0830     4.3563     0.0051 O.3     
  26 N26            1.7102     5.5063     0.0145 N.2     
  27 C27            0.4108     5.5964     0.0276 C.2     
  28 C28           -0.0844     4.2757     0.0203 C.2     
  29 C29           -0.4041     6.8639     0.0420 C.3     
  30 H30            3.2615     1.9731    -0.0197 H       
  31 H31            3.3653    -0.5020    -0.0339 H       
  32 H32           -0.8852    -3.1816    -0.0057 H       
  33 H33           -3.0283    -1.7220     0.3738 H       
  34 H34           -2.7696     0.0106     0.6892 H       
  35 H35           -2.3576    -0.4640    -2.0643 H       
  36 H36           -4.9426    -0.5392     0.4677 H       
  37 H37           -7.3154    -0.1012     0.0091 H       
  38 H38           -7.7071     0.7811    -4.5218 H       
  39 H39           -3.6897     0.4384    -5.9254 H       
  40 H40           -4.4172     1.7292    -7.3984 H       
  41 H41           -4.6750    -0.0036    -7.7135 H       
  42 H42           -5.6216     1.2133    -8.6032 H       
  43 H43           -1.1144     3.9508     0.0265 H       
  44 H44           -0.6109     7.1745    -0.9822 H       
  45 H45           -1.3440     6.6857     0.5644 H       
  46 H46            0.1532     7.6484     0.5540 H       
@<TRIPOS>BOND
   1    1    2 ar
   2    1    3 ar
   3    2    6 ar
   4    2    9 1
   5    3    4 ar
   6    3   23 1
   7    4    5 ar
   8    4   30 1
   9    5    6 ar
  10    5   31 1
  11    6    7 1
  12    7    8 1
  13    8    9 2
  14    8   32 1
  15    9   10 1
  16   10   11 1
  17   10   33 1
  18   10   34 1
  19   11   12 1
  20   11   35 1
  21   12   13 ar
  22   12   17 ar
  23   13   14 ar
  24   13   36 1
  25   14   15 ar
  26   14   37 1
  27   15   16 ar
  28   16   17 ar
  29   16   18 ar
  30   17   21 ar
  31   18   19 ar
  32   18   38 1
  33   19   20 ar
  34   19   22 1
  35   20   21 ar
  36   20   39 1
  37   22   24 1
  38   23   25 1
  39   23   28 2
  40   24   40 1
  41   24   41 1
  42   24   42 1
  43   25   26 1
  44   26   27 2
  45   27   28 1
  46   27   29 1
  47   28   43 1
  48   29   44 1
  49   29   45 1
  50   29   46 1

#	End of record

