#	Name: ASD00069475
#	Creating user name:	WinNT
#	Creation time:	15. 06. 2019 18:29

#	Modifying user name:	WinNT
#	Modification time:	15. 06. 2019 18:29

#	Program:	/corina/corina34_cracker 3.40 0067  02.08.2006

@<TRIPOS>MOLECULE
ASD00069475
  23   23    0    0    0
SMALL
NO_CHARGES


@<TRIPOS>ATOM
   1 O1            -0.0172     1.4158     0.0098 O.3     
   2 B2             0.0021    -0.0041     0.0020 Du      
   3 O3             1.2413    -0.6973    -0.0135 O.3     
   4 C4            -1.3468    -0.8075     0.0106 C.ar    
   5 C5            -2.5644    -0.1297     0.0258 C.ar    
   6 C6            -1.3308    -2.2014    -0.0029 C.ar    
   7 C7            -2.5190    -2.9023     0.0042 C.ar    
   8 C8            -3.7253    -2.2242     0.0243 C.ar    
   9 C9            -3.7470    -0.8409     0.0328 C.ar    
  10 C10           -5.0644    -0.1095     0.0552 C.3     
  11 C11           -5.4906     0.1293     1.5050 C.3     
  12 O12           -6.7399     0.8229     1.5262 O.3     
  13 H13            0.8608     1.8211     0.0036 H       
  14 H14            1.1533    -1.6602    -0.0179 H       
  15 H15           -2.5825     0.9501     0.0326 H       
  16 H16           -0.3901    -2.7316    -0.0192 H       
  17 H17           -2.5079    -3.9822    -0.0062 H       
  18 H18           -4.6531    -2.7769     0.0291 H       
  19 H19           -4.9571     0.8480    -0.4545 H       
  20 H20           -5.8210    -0.7083    -0.4520 H       
  21 H21           -5.5980    -0.8282     2.0147 H       
  22 H22           -4.7340     0.7280     2.0122 H       
  23 H23           -7.0717     1.0085     2.4153 H       
@<TRIPOS>BOND
   1    1    2 1
   2    1   13 1
   3    2    3 1
   4    2    4 1
   5    3   14 1
   6    4    5 ar
   7    4    6 ar
   8    5    9 ar
   9    5   15 1
  10    6    7 ar
  11    6   16 1
  12    7    8 ar
  13    7   17 1
  14    8    9 ar
  15    8   18 1
  16    9   10 1
  17   10   11 1
  18   10   19 1
  19   10   20 1
  20   11   12 1
  21   11   21 1
  22   11   22 1
  23   12   23 1

#	End of record

