#	Name: ASD01230872
#	Creating user name:	WinNT
#	Creation time:	15. 06. 2019 19:15

#	Modifying user name:	WinNT
#	Modification time:	15. 06. 2019 19:15

#	Program:	/corina/corina34_cracker 3.40 0067  02.08.2006

@<TRIPOS>MOLECULE
ASD01230872
  33   35    0    0    0
SMALL
NO_CHARGES


@<TRIPOS>ATOM
   1 C1            -0.0169     1.3985     0.0097 C.ar    
   2 C2             0.0021    -0.0041     0.0020 C.ar    
   3 C3             1.2330    -0.6605    -0.0132 C.ar    
   4 C4             2.3884     0.1055    -0.0201 C.ar    
   5 C5             2.2901     1.4833    -0.0118 C.ar    
   6 N6             1.1146     2.0836     0.0026 N.ar    
   7 N7            -1.2307     2.0717     0.0191 N.pl3   
   8 C8            -3.6312    -2.2198     0.0262 C.ar    
   9 C9            -3.3144    -1.4155    -1.0681 C.ar    
  10 C10           -2.1372    -0.6964    -1.0770 C.ar    
  11 C11           -1.2634    -0.7752     0.0104 C.ar    
  12 C12           -1.5826    -1.5801     1.1034 C.ar    
  13 C13           -2.7588    -2.2974     1.1112 C.ar    
  14 C14           -4.8997    -2.9882     0.0386 C.ar    
  15 C15           -5.2193    -3.7930     1.1308 C.ar    
  16 C16           -6.4010    -4.5058     1.1369 C.ar    
  17 C17           -7.2675    -4.4227     0.0618 C.ar    
  18 C18           -6.9553    -3.6259    -1.0250 C.ar    
  19 C19           -5.7793    -2.9038    -1.0393 C.ar    
  20 F20           -1.8290     0.0828    -2.1368 F       
  21 H21            1.2845    -1.7393    -0.0192 H       
  22 H22            3.3575    -0.3711    -0.0316 H       
  23 H23            3.1905     2.0796    -0.0172 H       
  24 H24           -2.0623     1.5723     0.0203 H       
  25 H25           -1.2474     3.0415     0.0245 H       
  26 H26           -3.9902    -1.3559    -1.9084 H       
  27 H27           -0.9073    -1.6416     1.9440 H       
  28 H28           -3.0052    -2.9206     1.9581 H       
  29 H29           -4.5434    -3.8589     1.9705 H       
  30 H30           -6.6496    -5.1300     1.9824 H       
  31 H31           -8.1912    -4.9823     0.0708 H       
  32 H32           -7.6353    -3.5651    -1.8618 H       
  33 H33           -5.5389    -2.2780    -1.8861 H       
@<TRIPOS>BOND
   1    1    2 ar
   2    1    6 ar
   3    1    7 1
   4    2    3 ar
   5    2   11 1
   6    3    4 ar
   7    3   21 1
   8    4    5 ar
   9    4   22 1
  10    5    6 ar
  11    5   23 1
  12    7   24 1
  13    7   25 1
  14    8    9 ar
  15    8   13 ar
  16    8   14 1
  17    9   10 ar
  18    9   26 1
  19   10   11 ar
  20   10   20 1
  21   11   12 ar
  22   12   13 ar
  23   12   27 1
  24   13   28 1
  25   14   15 ar
  26   14   19 ar
  27   15   16 ar
  28   15   29 1
  29   16   17 ar
  30   16   30 1
  31   17   18 ar
  32   17   31 1
  33   18   19 ar
  34   18   32 1
  35   19   33 1

#	End of record

