#	Name: ASD01916099
#	Creating user name:	WinNT
#	Creation time:	15. 06. 2019 20:06

#	Modifying user name:	WinNT
#	Modification time:	15. 06. 2019 20:06

#	Program:	/corina/corina34_cracker 3.40 0067  02.08.2006

@<TRIPOS>MOLECULE
ASD01916099
  45   47    0    0    0
SMALL
NO_CHARGES


@<TRIPOS>ATOM
   1 C1            -0.0170     1.3991     0.0094 C.ar    
   2 C2             0.0022    -0.0041     0.0136 C.ar    
   3 C3            -1.2033    -0.6759     0.0210 C.ar    
   4 C4            -2.3890     0.0534     0.0242 C.ar    
   5 N5            -3.6085    -0.6194     0.0322 N.am    
   6 C6             1.2068     2.1427     0.0012 C.1     
   7 C7             2.2101     2.7523    -0.0056 C.1     
   8 C8             3.4339     3.4959    -0.0139 C.ar    
   9 C9             3.4065     4.8928    -0.0180 C.ar    
  10 C10            4.5894     5.6024    -0.0260 C.ar    
  11 N11           -2.3743     1.3776     0.0201 N.ar    
  12 C12           -1.2474     2.0592     0.0076 C.ar    
  13 C13            4.6615     2.8278    -0.0121 C.ar    
  14 C14            5.8009     4.9341    -0.0304 C.ar    
  15 N15           -3.7216    -1.9744    -0.0668 N.3     
  16 C16           -5.0681    -2.3545     0.4202 C.3     
  17 C17           -5.8804    -1.0648     0.1498 C.3     
  18 C18           -4.7983    -0.0003     0.1443 C.2     
  19 C19           -5.6276    -3.5315    -0.3814 C.3     
  20 C20            5.8359     3.5505    -0.0202 C.ar    
  21 O21           -4.9751     1.1972     0.2199 O.2     
  22 C22           -5.0377    -2.6786     1.9151 C.3     
  23 C23           -3.5175    -2.4199    -1.4517 C.3     
  24 C24            4.5621     7.1091    -0.0304 C.3     
  25 H25            0.9370    -0.5448     0.0106 H       
  26 H26           -1.2265    -1.7557     0.0240 H       
  27 H27            2.4616     5.4158    -0.0152 H       
  28 H28           -1.2752     3.1388     0.0047 H       
  29 H29            4.6903     1.7482    -0.0041 H       
  30 H30            6.7239     5.4949    -0.0374 H       
  31 H31           -6.3826    -1.1180    -0.8161 H       
  32 H32           -6.5963    -0.8821     0.9511 H       
  33 H33           -4.9632    -4.3895    -0.2788 H       
  34 H34           -6.6167    -3.7907    -0.0039 H       
  35 H35           -5.7014    -3.2528    -1.4326 H       
  36 H36            6.7853     3.0357    -0.0185 H       
  37 H37           -4.6991    -1.8035     2.4698 H       
  38 H38           -6.0385    -2.9545     2.2475 H       
  39 H39           -4.3540    -3.5086     2.0932 H       
  40 H40           -2.5226    -2.1251    -1.7853 H       
  41 H41           -3.6110    -3.5048    -1.5019 H       
  42 H42           -4.2676    -1.9605    -2.0954 H       
  43 H43            4.5606     7.4755     0.9962 H       
  44 H44            5.4428     7.4870    -0.5497 H       
  45 H45            3.6631     7.4547    -0.5408 H       
@<TRIPOS>BOND
   1    1    2 ar
   2    1    6 1
   3    1   12 ar
   4    2    3 ar
   5    2   25 1
   6    3    4 ar
   7    3   26 1
   8    4   11 ar
   9    4    5 1
  10    5   15 1
  11    5   18 am
  12    6    7 3
  13    7    8 1
  14    8    9 ar
  15    8   13 ar
  16    9   10 ar
  17    9   27 1
  18   10   24 1
  19   10   14 ar
  20   11   12 ar
  21   12   28 1
  22   13   20 ar
  23   13   29 1
  24   14   20 ar
  25   14   30 1
  26   15   16 1
  27   15   23 1
  28   16   17 1
  29   16   19 1
  30   16   22 1
  31   17   18 1
  32   17   31 1
  33   17   32 1
  34   18   21 2
  35   19   33 1
  36   19   34 1
  37   19   35 1
  38   20   36 1
  39   22   37 1
  40   22   38 1
  41   22   39 1
  42   23   40 1
  43   23   41 1
  44   23   42 1
  45   24   43 1
  46   24   44 1
  47   24   45 1

#	End of record

