#	Name: ASD01811330
#	Creating user name:	WinNT
#	Creation time:	15. 06. 2019 19:26

#	Modifying user name:	WinNT
#	Modification time:	15. 06. 2019 19:26

#	Program:	/corina/corina34_cracker 3.40 0067  02.08.2006

@<TRIPOS>MOLECULE
ASD01811330
  60   63    0    0    0
SMALL
NO_CHARGES


@<TRIPOS>ATOM
   1 C1             0.0835     1.0950    -0.1901 C.ar    
   2 C2             0.2474    -0.2886    -0.1002 C.ar    
   3 C3            -0.9336    -1.1781    -0.1179 C.2     
   4 N4            -2.0436    -0.8382     0.5668 N.am    
   5 O5            -0.9034    -2.2160    -0.7500 O.2     
   6 C6            -2.0557     0.3501     1.4308 C.3     
   7 C7             1.5286    -0.8289     0.0058 C.ar    
   8 C8             2.6314     0.0118     0.0212 C.ar    
   9 C9             2.4573     1.3878    -0.0687 C.ar    
  10 C10            1.1871     1.9231    -0.1738 C.ar    
  11 N11            3.9181    -0.5247     0.1278 N.pl3   
  12 C12           -2.5235    -0.0623     2.8300 C.3     
  13 C13           -3.8735    -0.7752     2.7227 C.3     
  14 C14           -3.7190    -2.0387     1.8730 C.3     
  15 C15           -3.2665    -1.6454     0.4586 C.3     
  16 C16           -4.3531    -1.1523     4.1006 C.ar    
  17 C17           -5.5549    -0.6543     4.5718 C.ar    
  18 C18           -6.0001    -0.9958     5.8320 C.ar    
  19 C19           -5.2348    -1.8461     6.6326 C.ar    
  20 C20           -4.0229    -2.3450     6.1508 C.ar    
  21 C21           -3.5922    -1.9995     4.8866 C.ar    
  22 C22            4.0862    -1.8776     0.3683 C.2     
  23 C23           -5.6905    -2.2044     7.9420 C.1     
  24 N24           -6.0520    -2.4887     8.9807 N.1     
  25 N25            3.1286    -2.7777     0.4341 N.2     
  26 C26            3.6573     2.2993    -0.0512 C.3     
  27 C27            3.6558    -3.9776     0.6799 C.2     
  28 N28            4.9533    -3.8635     0.7746 N.2     
  29 N29            5.2622    -2.5089     0.5711 N.pl3   
  30 C30            2.8784    -5.2603     0.8256 C.3     
  31 C31            3.3372    -6.2585    -0.2393 C.3     
  32 C32            3.1229    -5.8497     2.2162 C.3     
  33 H33           -0.9069     1.5170    -0.2768 H       
  34 H34           -1.0512     0.7690     1.4900 H       
  35 H35           -2.7400     1.0930     1.0209 H       
  36 H36            1.6615    -1.8984     0.0759 H       
  37 H37            1.0581     2.9931    -0.2434 H       
  38 H38            4.6930     0.0511     0.0332 H       
  39 H39           -1.7908    -0.7358     3.2747 H       
  40 H40           -2.6291     0.8248     3.4545 H       
  41 H41           -4.5993    -0.1098     2.2552 H       
  42 H42           -2.9751    -2.6935     2.3268 H       
  43 H43           -4.6755    -2.5582     1.8164 H       
  44 H44           -4.0511    -1.0664    -0.0283 H       
  45 H45           -3.0593    -2.5444    -0.1219 H       
  46 H46           -6.1457     0.0036     3.9516 H       
  47 H47           -6.9382    -0.6061     6.1986 H       
  48 H48           -3.4259    -3.0028     6.7651 H       
  49 H49           -2.6551    -2.3847     4.5127 H       
  50 H50            4.0067     2.4596    -1.0712 H       
  51 H51            3.3808     3.2556     0.3927 H       
  52 H52            4.4525     1.8418     0.5375 H       
  53 H53            6.1445    -2.1059     0.5801 H       
  54 H54            1.8150    -5.0571     0.6990 H       
  55 H55            3.1630    -5.8386    -1.2300 H       
  56 H56            4.4006    -6.4617    -0.1127 H       
  57 H57            2.7749    -7.1863    -0.1339 H       
  58 H58            2.7960    -5.1386     2.9748 H       
  59 H59            2.5606    -6.7775     2.3216 H       
  60 H60            4.1863    -6.0529     2.3428 H       
@<TRIPOS>BOND
   1    1    2 ar
   2    1   10 ar
   3    1   33 1
   4    2    3 1
   5    2    7 ar
   6    3    4 am
   7    3    5 2
   8    4    6 1
   9    4   15 1
  10    6   12 1
  11    6   34 1
  12    6   35 1
  13    7    8 ar
  14    7   36 1
  15    8    9 ar
  16    8   11 1
  17    9   10 ar
  18    9   26 1
  19   10   37 1
  20   11   22 1
  21   11   38 1
  22   12   13 1
  23   12   39 1
  24   12   40 1
  25   13   14 1
  26   13   16 1
  27   13   41 1
  28   14   15 1
  29   14   42 1
  30   14   43 1
  31   15   44 1
  32   15   45 1
  33   16   17 ar
  34   16   21 ar
  35   17   18 ar
  36   17   46 1
  37   18   19 ar
  38   18   47 1
  39   19   20 ar
  40   19   23 1
  41   20   21 ar
  42   20   48 1
  43   21   49 1
  44   22   25 2
  45   22   29 1
  46   23   24 3
  47   25   27 1
  48   26   50 1
  49   26   51 1
  50   26   52 1
  51   27   28 2
  52   27   30 1
  53   28   29 1
  54   29   53 1
  55   30   31 1
  56   30   32 1
  57   30   54 1
  58   31   55 1
  59   31   56 1
  60   31   57 1
  61   32   58 1
  62   32   59 1
  63   32   60 1

#	End of record

