#	Name: ASD08070636
#	Creating user name:	WinNT
#	Creation time:	15. 06. 2019 21:15

#	Modifying user name:	WinNT
#	Modification time:	15. 06. 2019 21:15

#	Program:	/corina/corina34_cracker 3.40 0067  02.08.2006

@<TRIPOS>MOLECULE
ASD08070636
  40   41    0    0    0
SMALL
NO_CHARGES


@<TRIPOS>ATOM
   1 O1            -0.0174     1.4354     0.0099 O.3     
   2 C2             0.0021    -0.0041     0.0020 C.3     
   3 O3             1.2438    -0.3266    -0.6516 O.3     
   4 C4             2.0691     0.7335    -0.4082 C.ar    
   5 C5             1.2912     1.8185    -0.0005 C.ar    
   6 C6             1.8951     3.0290     0.3108 C.ar    
   7 C7             3.2633     3.1655     0.2185 C.ar    
   8 C8             4.0471     2.0840    -0.1895 C.ar    
   9 C9             3.4405     0.8645    -0.5026 C.ar    
  10 C10            5.5127     2.2285    -0.2894 C.2     
  11 O11            6.1937     1.2859    -0.6447 O.2     
  12 N12            6.0961     3.4052     0.0132 N.am    
  13 C13            7.5768     2.7269    -2.4453 C.3     
  14 C14            7.9318     3.8973    -1.5261 C.3     
  15 C15            7.5507     3.5485    -0.0859 C.3     
  16 C16            8.0181     4.6650     0.8500 C.3     
  17 C17            7.7492     4.2603     2.3008 C.3     
  18 C18            8.6080     3.0458     2.6590 C.3     
  19 C19            8.1006     5.4250     3.2286 C.3     
  20 H20           -0.0068    -0.3927     1.0203 H       
  21 H21           -0.8423    -0.3953    -0.5655 H       
  22 H22            1.2907     3.8666     0.6262 H       
  23 H23            3.7294     4.1091     0.4612 H       
  24 H24            4.0434     0.0258    -0.8180 H       
  25 H25            5.5528     4.1571     0.2967 H       
  26 H26            8.1236     1.8383    -2.1298 H       
  27 H27            6.5056     2.5331    -2.3897 H       
  28 H28            7.8483     2.9754    -3.4713 H       
  29 H29            9.0029     4.0911    -1.5817 H       
  30 H30            7.3849     4.7859    -1.8416 H       
  31 H31            8.0284     2.6113     0.1995 H       
  32 H32            9.0862     4.8320     0.7113 H       
  33 H33            7.4744     5.5818     0.6218 H       
  34 H34            6.6955     4.0075     2.4181 H       
  35 H35            9.6618     3.2986     2.5416 H       
  36 H36            8.4165     2.7575     3.6925 H       
  37 H37            8.3577     2.2161     1.9979 H       
  38 H38            7.4888     6.2902     2.9734 H       
  39 H39            7.9091     5.1367     4.2622 H       
  40 H40            9.1544     5.6778     3.1113 H       
@<TRIPOS>BOND
   1    1    2 1
   2    1    5 1
   3    2    3 1
   4    2   20 1
   5    2   21 1
   6    3    4 1
   7    4    5 ar
   8    4    9 ar
   9    5    6 ar
  10    6    7 ar
  11    6   22 1
  12    7    8 ar
  13    7   23 1
  14    8    9 ar
  15    8   10 1
  16    9   24 1
  17   10   11 2
  18   10   12 am
  19   12   15 1
  20   12   25 1
  21   13   14 1
  22   13   26 1
  23   13   27 1
  24   13   28 1
  25   14   15 1
  26   14   29 1
  27   14   30 1
  28   15   16 1
  29   15   31 1
  30   16   17 1
  31   16   32 1
  32   16   33 1
  33   17   18 1
  34   17   19 1
  35   17   34 1
  36   18   35 1
  37   18   36 1
  38   18   37 1
  39   19   38 1
  40   19   39 1
  41   19   40 1

#	End of record

