#	Name: ASD02500850
#	Creating user name:	WinNT
#	Creation time:	15. 06. 2019 20:23

#	Modifying user name:	WinNT
#	Modification time:	15. 06. 2019 20:23

#	Program:	/corina/corina34_cracker 3.40 0067  02.08.2006

@<TRIPOS>MOLECULE
ASD02500850
  66   69    0    0    0
SMALL
NO_CHARGES


@<TRIPOS>ATOM
   1 C1            -0.2519     1.2431     1.8117 C.ar    
   2 C2            -0.2690    -0.1408     1.8844 C.ar    
   3 C3            -1.4400    -0.8358     1.6466 C.ar    
   4 C4            -2.6027    -0.1460     1.3344 C.ar    
   5 C5            -2.5856     1.2482     1.2616 C.ar    
   6 C6            -1.4070     1.9383     1.5065 C.ar    
   7 Cl7            1.2237     2.1068     2.1120 Cl      
   8 Cl8            1.1854    -1.0045     2.2750 Cl      
   9 N9            -3.9012    -0.5623     1.0512 N.pl3   
  10 C10           -4.6644     0.5510     0.8098 C.2     
  11 N11           -3.8738     1.6644     0.9349 N.pl3   
  12 C12           -4.3703    -1.9497     1.0163 C.3     
  13 C13           -4.8645    -2.3561     2.4061 C.3     
  14 C14           -4.3092     3.0518     0.7565 C.3     
  15 C15           -6.0058     0.5509     0.4929 C.2     
  16 C16           -6.7230     1.7540     0.4823 C.2     
  17 C17           -8.0190     1.7712     0.0603 C.2     
  18 C18           -8.7743     2.9621     0.1464 C.cat   
  19 N19           -8.3576     4.1240     0.7532 N.pl3   
  20 C20           -9.3841     5.0454     0.6185 C.ar    
  21 C21          -10.4124     4.3923    -0.0830 C.ar    
  22 N22           -9.9859     3.1328    -0.3478 N.pl3   
  23 C23           -9.5465     6.3630     1.0179 C.ar    
  24 C24          -10.7192     7.0312     0.7254 C.ar    
  25 C25          -11.7391     6.3914     0.0326 C.ar    
  26 C26          -11.5945     5.0825    -0.3719 C.ar    
  27 Cl27         -13.2064     7.2472    -0.3257 Cl      
  28 Cl28         -10.9202     8.6809     1.2272 Cl      
  29 C29           -7.0709     4.3457     1.4177 C.3     
  30 C30          -10.7558     2.1143    -1.0662 C.3     
  31 C31          -10.4600     2.2136    -2.5640 C.3     
  32 C32          -11.2640     1.1499    -3.3143 C.3     
  33 C33          -10.9682     1.2492    -4.8122 C.3     
  34 C34           -5.3545    -3.8050     2.3697 C.3     
  35 C35           -5.8487    -4.2114     3.7595 C.3     
  36 H36           -1.4497    -1.9142     1.7034 H       
  37 H37           -1.3903     3.0167     1.4510 H       
  38 H38           -5.1868    -2.0393     0.2998 H       
  39 H39           -3.5508    -2.6029     0.7168 H       
  40 H40           -4.0480    -2.2665     3.1226 H       
  41 H41           -5.6841    -1.7028     2.7057 H       
  42 H42           -4.7458     3.4179     1.6857 H       
  43 H43           -3.4522     3.6700     0.4893 H       
  44 H44           -5.0536     3.0996    -0.0383 H       
  45 H45           -6.5038    -0.3768     0.2526 H       
  46 H46           -6.2492     2.6681     0.8086 H       
  47 H47           -8.4685     0.8745    -0.3400 H       
  48 H48           -8.7574     6.8659     1.5572 H       
  49 H49          -12.3911     4.5908    -0.9106 H       
  50 H50           -6.3129     4.5840     0.6715 H       
  51 H51           -7.1626     5.1744     2.1198 H       
  52 H52           -6.7799     3.4438     1.9561 H       
  53 H53          -10.4750     1.1249    -0.7052 H       
  54 H54          -11.8201     2.2752    -0.8946 H       
  55 H55          -10.7407     3.2030    -2.9250 H       
  56 H56           -9.3957     2.0527    -2.7357 H       
  57 H57          -10.9833     0.1605    -2.9533 H       
  58 H58          -12.3284     1.3108    -3.1427 H       
  59 H59          -11.2490     2.2386    -5.1731 H       
  60 H60           -9.9039     1.0883    -4.9838 H       
  61 H61          -11.5411     0.4914    -5.3466 H       
  62 H62           -6.1710    -3.8946     1.6531 H       
  63 H63           -4.5349    -4.4583     2.0701 H       
  64 H64           -6.6682    -3.5582     4.0590 H       
  65 H65           -6.1977    -5.2437     3.7335 H       
  66 H66           -5.0322    -4.1219     4.4760 H       
@<TRIPOS>BOND
   1    1    2 ar
   2    1    7 1
   3    1    6 ar
   4    2    3 ar
   5    2    8 1
   6    3    4 ar
   7    3   36 1
   8    4    5 ar
   9    4    9 1
  10    5    6 ar
  11    5   11 1
  12    6   37 1
  13    9   10 1
  14    9   12 1
  15   10   11 1
  16   10   15 2
  17   11   14 1
  18   12   13 1
  19   12   38 1
  20   12   39 1
  21   13   34 1
  22   13   40 1
  23   13   41 1
  24   14   42 1
  25   14   43 1
  26   14   44 1
  27   15   16 1
  28   15   45 1
  29   16   17 2
  30   16   46 1
  31   17   18 1
  32   17   47 1
  33   18   19 ar
  34   18   22 ar
  35   19   20 1
  36   19   29 1
  37   20   21 ar
  38   20   23 ar
  39   21   22 1
  40   21   26 ar
  41   22   30 1
  42   23   24 ar
  43   23   48 1
  44   24   25 ar
  45   24   28 1
  46   25   26 ar
  47   25   27 1
  48   26   49 1
  49   29   50 1
  50   29   51 1
  51   29   52 1
  52   30   31 1
  53   30   53 1
  54   30   54 1
  55   31   32 1
  56   31   55 1
  57   31   56 1
  58   32   33 1
  59   32   57 1
  60   32   58 1
  61   33   59 1
  62   33   60 1
  63   33   61 1
  64   34   35 1
  65   34   62 1
  66   34   63 1
  67   35   64 1
  68   35   65 1
  69   35   66 1

#	End of record

