#	Name: ASD01150307
#	Creating user name:	WinNT
#	Creation time:	15. 06. 2019 19:04

#	Modifying user name:	WinNT
#	Modification time:	15. 06. 2019 19:04

#	Program:	/corina/corina34_cracker 3.40 0067  02.08.2006

@<TRIPOS>MOLECULE
ASD01150307
  52   55    0    0    0
SMALL
NO_CHARGES


@<TRIPOS>ATOM
   1 S1            -0.0217     1.7503     0.0117 S.3     
   2 C2             0.0021    -0.0041     0.0020 C.2     
   3 C3             1.2467    -0.4585    -0.0123 C.2     
   4 C4             2.2376     0.5958    -0.0161 C.2     
   5 C5             1.6798     1.8491    -0.0040 C.2     
   6 C6            -1.2269    -0.8762     0.0095 C.3     
   7 C7             1.5948    -1.9247    -0.0230 C.3     
   8 C8             1.6993    -2.4135    -1.4691 C.3     
   9 C9             3.6813     0.3513    -0.0308 C.2     
  10 N10            2.4007     3.0329    -0.0050 N.am    
  11 C11            1.7544     4.2155     0.0076 C.2     
  12 C12            2.5383     5.5026     0.0065 C.3     
  13 O13            0.5420     4.2439     0.0197 O.2     
  14 C14            1.5716     6.6885     0.0223 C.3     
  15 C15            2.3674     7.9952     0.0213 C.3     
  16 C16            3.4319     5.5566     1.2473 C.3     
  17 C17            4.2277     6.8633     1.2463 C.3     
  18 C18            3.2610     8.0491     1.2620 C.3     
  19 C19            3.4072     5.5696    -1.2510 C.3     
  20 C20            4.2030     6.8764    -1.2521 C.3     
  21 C21            5.0966     6.9303    -0.0113 C.3     
  22 C22            3.2363     8.0622    -1.2363 C.3     
  23 O23            4.2712     0.2551    -1.0902 O.2     
  24 O24            4.3571     0.2327     1.1306 O.3     
  25 C25            5.7859    -0.0091     1.0401 C.3     
  26 H26           -2.1179    -0.2484     0.0213 H       
  27 H27           -1.2344    -1.5011    -0.8836 H       
  28 H28           -1.2172    -1.5100     0.8963 H       
  29 H29            2.5494    -2.0751     0.4812 H       
  30 H30            0.8177    -2.4864     0.4951 H       
  31 H31            2.4765    -1.8517    -1.9873 H       
  32 H32            1.9511    -3.4740    -1.4768 H       
  33 H33            0.7447    -2.2630    -1.9733 H       
  34 H34            3.3704     3.0102    -0.0147 H       
  35 H35            0.9350     6.6501    -0.8616 H       
  36 H36            0.9526     6.6408     0.9182 H       
  37 H37            1.6788     8.8400     0.0325 H       
  38 H38            2.8129     5.5088     2.1432 H       
  39 H39            4.1205     4.7117     1.2361 H       
  40 H40            4.8643     6.9017     2.1302 H       
  41 H41            3.8280     8.9801     1.2613 H       
  42 H42            2.6420     8.0014     2.1579 H       
  43 H43            4.0958     4.7248    -1.2622 H       
  44 H44            2.7705     5.5312    -2.1350 H       
  45 H45            4.8220     6.9241    -2.1480 H       
  46 H46            5.6635     7.8612    -0.0120 H       
  47 H47            5.7852     6.0855    -0.0225 H       
  48 H48            2.5997     8.0238    -2.1202 H       
  49 H49            3.8033     8.9931    -1.2370 H       
  50 H50            5.9635    -0.9399     0.5015 H       
  51 H51            6.2609     0.8150     0.5077 H       
  52 H52            6.2060    -0.0838     2.0431 H       
@<TRIPOS>BOND
   1    1    2 1
   2    1    5 1
   3    2    3 2
   4    2    6 1
   5    3    4 1
   6    3    7 1
   7    4    5 2
   8    4    9 1
   9    5   10 1
  10    6   26 1
  11    6   27 1
  12    6   28 1
  13    7    8 1
  14    7   29 1
  15    7   30 1
  16    8   31 1
  17    8   32 1
  18    8   33 1
  19    9   23 2
  20    9   24 1
  21   10   11 am
  22   10   34 1
  23   11   12 1
  24   11   13 2
  25   12   14 1
  26   12   19 1
  27   12   16 1
  28   14   15 1
  29   14   35 1
  30   14   36 1
  31   15   22 1
  32   15   18 1
  33   15   37 1
  34   16   17 1
  35   16   38 1
  36   16   39 1
  37   17   18 1
  38   17   21 1
  39   17   40 1
  40   18   41 1
  41   18   42 1
  42   19   20 1
  43   19   43 1
  44   19   44 1
  45   20   21 1
  46   20   22 1
  47   20   45 1
  48   21   46 1
  49   21   47 1
  50   22   48 1
  51   22   49 1
  52   24   25 1
  53   25   50 1
  54   25   51 1
  55   25   52 1

#	End of record

