#	Name: ASD01915391
#	Creating user name:	WinNT
#	Creation time:	15. 06. 2019 20:05

#	Modifying user name:	WinNT
#	Modification time:	15. 06. 2019 20:05

#	Program:	/corina/corina34_cracker 3.40 0067  02.08.2006

@<TRIPOS>MOLECULE
ASD01915391
  46   49    0    0    0
SMALL
NO_CHARGES


@<TRIPOS>ATOM
   1 C1            -0.0168     1.3887     0.0097 C.ar    
   2 C2             0.0021    -0.0041     0.0020 C.ar    
   3 N3             1.1537    -0.6628    -0.0125 N.ar    
   4 C4             2.3101    -0.0318    -0.0202 C.ar    
   5 C5             2.3650     1.3500    -0.0133 C.ar    
   6 C6             1.1839     2.0778     0.0019 C.ar    
   7 C7             3.6951     2.0585    -0.0217 C.3     
   8 N8             4.7566     1.1344     0.4034 N.am    
   9 C9             5.7202     0.9809    -0.7016 C.3     
  10 C10            5.5641     2.2702    -1.5459 C.3     
  11 C11            4.0354     2.5191    -1.4547 C.3     
  12 C12            4.8359     0.5285     1.6047 C.2     
  13 O13            3.9811     0.7301     2.4445 O.2     
  14 C14            5.9653    -0.3833     1.9013 C.ar    
  15 C15           -1.2760    -0.7572     0.0107 C.ar    
  16 C16           -1.2663    -2.1502     0.0031 C.ar    
  17 C17           -2.4604    -2.8474     0.0112 C.ar    
  18 C18           -3.6641    -2.1625     0.0263 C.ar    
  19 C19           -3.6779    -0.7784     0.0339 C.ar    
  20 C20           -2.4902    -0.0733     0.0322 C.ar    
  21 F21           -2.4529    -4.1983     0.0039 F       
  22 C22            1.2075     3.5846     0.0093 C.3     
  23 Cl23          -5.1908     0.0729     0.0528 Cl      
  24 C24            6.0494    -1.0110     3.1431 C.ar    
  25 N25            7.0581    -1.8236     3.4028 N.ar    
  26 C26            7.9855    -2.0410     2.4875 C.ar    
  27 C27            7.9050    -1.4173     1.2505 C.ar    
  28 N28            6.8992    -0.6096     0.9813 N.ar    
  29 H29           -0.9550     1.9236     0.0171 H       
  30 H30            3.2276    -0.6014    -0.0316 H       
  31 H31            3.6614     2.9177     0.6482 H       
  32 H32            6.7352     0.9032    -0.3118 H       
  33 H33            5.4746     0.1035    -1.3000 H       
  34 H34            6.1215     3.0963    -1.1043 H       
  35 H35            5.8716     2.1011    -2.5779 H       
  36 H36            3.5021     1.9168    -2.1902 H       
  37 H37            3.8085     3.5774    -1.5838 H       
  38 H38           -0.3279    -2.6846    -0.0094 H       
  39 H39           -4.5950    -2.7101     0.0319 H       
  40 H40           -2.5025     1.0066     0.0385 H       
  41 H41            1.2032     3.9531    -1.0165 H       
  42 H42            0.3284     3.9592     0.5336 H       
  43 H43            2.1080     3.9314     0.5161 H       
  44 H44            5.2914    -0.8331     3.8917 H       
  45 H45            8.8090    -2.7059     2.7028 H       
  46 H46            8.6657    -1.5978     0.5053 H       
@<TRIPOS>BOND
   1    1    2 ar
   2    1    6 ar
   3    1   29 1
   4    2    3 ar
   5    2   15 1
   6    3    4 ar
   7    4    5 ar
   8    4   30 1
   9    5    6 ar
  10    5    7 1
  11    6   22 1
  12    7    8 1
  13    7   11 1
  14    7   31 1
  15    8    9 1
  16    8   12 am
  17    9   10 1
  18    9   32 1
  19    9   33 1
  20   10   11 1
  21   10   34 1
  22   10   35 1
  23   11   36 1
  24   11   37 1
  25   12   13 2
  26   12   14 1
  27   14   24 ar
  28   14   28 ar
  29   15   16 ar
  30   15   20 ar
  31   16   17 ar
  32   16   38 1
  33   17   18 ar
  34   17   21 1
  35   18   19 ar
  36   18   39 1
  37   19   20 ar
  38   19   23 1
  39   20   40 1
  40   22   41 1
  41   22   42 1
  42   22   43 1
  43   24   25 ar
  44   24   44 1
  45   25   26 ar
  46   26   27 ar
  47   26   45 1
  48   27   28 ar
  49   27   46 1

#	End of record

