#	Name: ASD03540502
#	Creating user name:	WinNT
#	Creation time:	15. 06. 2019 20:43

#	Modifying user name:	WinNT
#	Modification time:	15. 06. 2019 20:43

#	Program:	/corina/corina34_cracker 3.40 0067  02.08.2006

@<TRIPOS>MOLECULE
ASD03540502
  60   64    0    0    0
SMALL
NO_CHARGES


@<TRIPOS>ATOM
   1 C1            -0.0233     1.4940    -0.1597 C.2     
   2 C2             0.0021    -0.0041     0.0020 C.3     
   3 O3             1.0116     2.1067    -0.2762 O.2     
   4 O4            -1.1958     2.1471    -0.1799 O.3     
   5 N5             1.3897    -0.4735    -0.0138 N.am    
   6 C6             2.2430    -0.0570     0.9372 C.2     
   7 N7             3.5268    -0.4455     0.9850 N.am    
   8 C8             4.0374    -1.2904     0.0629 C.2     
   9 C9             3.1455    -1.7796    -1.0045 C.ar    
  10 C10            3.5954    -2.6499    -1.9893 C.ar    
  11 C11            2.7085    -3.0804    -2.9753 C.ar    
  12 C12            1.3803    -2.6367    -2.9670 C.ar    
  13 C13            0.9382    -1.7808    -1.9981 C.ar    
  14 C14            1.8059    -1.3455    -1.0046 C.ar    
  15 O15            5.2016    -1.6378     0.1115 O.2     
  16 O16            1.8342     0.7054     1.7913 O.2     
  17 C17            4.3903     0.0563     2.0568 C.3     
  18 C18            4.3212    -0.8785     3.2368 C.ar    
  19 C19            5.2063    -1.9360     3.3336 C.ar    
  20 C20            5.1429    -2.7934     4.4160 C.ar    
  21 C21            4.1946    -2.5932     5.4018 C.ar    
  22 C22            3.3102    -1.5353     5.3054 C.ar    
  23 C23            3.3764    -0.6752     4.2252 C.ar    
  24 C24            3.1704    -4.0050    -4.0297 C.2     
  25 N25            2.3138    -4.4217    -4.9831 N.am    
  26 O26            4.3235    -4.3904    -4.0378 O.2     
  27 C27            2.7722    -5.3391    -6.0294 C.3     
  28 O28           -1.4167    -6.2844    -9.6573 O.3     
  29 C29           -0.9058    -5.4808   -10.7373 C.3     
  30 O30           -0.0564    -4.5226   -10.0787 O.3     
  31 C31            0.3657    -5.1356    -8.9345 C.ar    
  32 C32           -0.4708    -6.2191    -8.6754 C.ar    
  33 C33            1.4146    -4.8540    -8.0749 C.ar    
  34 C34            1.6300    -5.6473    -6.9629 C.ar    
  35 C35            0.8004    -6.7225    -6.7061 C.ar    
  36 C36           -0.2490    -7.0093    -7.5597 C.ar    
  37 C37           -0.6499    -0.3844     1.3329 C.3     
  38 H38           -0.5476    -0.4673    -0.8174 H       
  39 H39           -1.1614     3.1077    -0.2859 H       
  40 H40            4.6208    -2.9888    -1.9915 H       
  41 H41            0.6990    -2.9741    -3.7340 H       
  42 H42           -0.0884    -1.4453    -2.0025 H       
  43 H43            5.4181     0.1136     1.6984 H       
  44 H44            4.0551     1.0484     2.3590 H       
  45 H45            5.9471    -2.0924     2.5635 H       
  46 H46            5.8339    -3.6200     4.4913 H       
  47 H47            4.1446    -3.2636     6.2471 H       
  48 H48            2.5691    -1.3791     6.0753 H       
  49 H49            2.6878     0.1535     4.1517 H       
  50 H50            1.3939    -4.1143    -4.9766 H       
  51 H51            3.5841    -4.8751    -6.5894 H       
  52 H52            3.1274    -6.2628    -5.5725 H       
  53 H53           -0.3279    -6.0927   -11.4298 H       
  54 H54           -1.7201    -4.9766   -11.2579 H       
  55 H55            2.0648    -4.0149    -8.2735 H       
  56 H56            0.9718    -7.3397    -5.8366 H       
  57 H57           -0.8961    -7.8496    -7.3562 H       
  58 H58           -0.1003     0.0788     2.1522 H       
  59 H59           -1.6824    -0.0351     1.3446 H       
  60 H60           -0.6316    -1.4680     1.4499 H       
@<TRIPOS>BOND
   1    1    2 1
   2    1    3 2
   3    1    4 1
   4    2    5 1
   5    2   37 1
   6    2   38 1
   7    4   39 1
   8    5    6 am
   9    5   14 1
  10    6    7 am
  11    6   16 2
  12    7    8 am
  13    7   17 1
  14    8    9 1
  15    8   15 2
  16    9   10 ar
  17    9   14 ar
  18   10   11 ar
  19   10   40 1
  20   11   12 ar
  21   11   24 1
  22   12   13 ar
  23   12   41 1
  24   13   14 ar
  25   13   42 1
  26   17   18 1
  27   17   43 1
  28   17   44 1
  29   18   19 ar
  30   18   23 ar
  31   19   20 ar
  32   19   45 1
  33   20   21 ar
  34   20   46 1
  35   21   22 ar
  36   21   47 1
  37   22   23 ar
  38   22   48 1
  39   23   49 1
  40   24   25 am
  41   24   26 2
  42   25   27 1
  43   25   50 1
  44   27   34 1
  45   27   51 1
  46   27   52 1
  47   28   29 1
  48   28   32 1
  49   29   30 1
  50   29   53 1
  51   29   54 1
  52   30   31 1
  53   31   32 ar
  54   31   33 ar
  55   32   36 ar
  56   33   34 ar
  57   33   55 1
  58   34   35 ar
  59   35   36 ar
  60   35   56 1
  61   36   57 1
  62   37   58 1
  63   37   59 1
  64   37   60 1

#	End of record

