#	Name: ASD01410743
#	Creating user name:	WinNT
#	Creation time:	15. 06. 2019 19:18

#	Modifying user name:	WinNT
#	Modification time:	15. 06. 2019 19:18

#	Program:	/corina/corina34_cracker 3.40 0067  02.08.2006

@<TRIPOS>MOLECULE
ASD01410743
 101  107    0    0    0
SMALL
NO_CHARGES


@<TRIPOS>ATOM
   1 N1            -1.4842     3.8368     0.7763 N.3     
   2 C2             2.0788     4.3180     1.9459 C.3     
   3 C3             0.9113     4.3216     0.9339 C.3     
   4 N4             0.4823     5.7326     0.9101 N.am    
   5 C5             1.7074     6.5404     0.9771 C.3     
   6 C6             2.7786     5.6702     1.6657 C.3     
   7 O7             1.5866     4.2708     3.2866 O.3     
   8 C8             2.1583     6.9087    -0.4129 C.2     
   9 O9             1.5220     6.5356    -1.3756 O.2     
  10 N10            3.2687     7.6527    -0.5862 N.am    
  11 C11           -0.2324     3.4491     1.4357 C.3     
  12 C12           -1.9075     5.1904     1.1517 C.3     
  13 C13           -0.7874     6.1661     0.8836 C.2     
  14 O14           -1.0324     7.3301     0.6471 O.2     
  15 C15           -3.1353     5.5864     0.3291 C.3     
  16 C16           -3.6520     6.9453     0.8058 C.3     
  17 C17            3.7525     7.9426    -1.9383 C.3     
  18 C18            4.2401     6.7522    -2.7233 C.2     
  19 N19            4.3541     5.5505    -2.1239 N.am    
  20 O20            4.5298     6.8756    -3.8945 O.2     
  21 S21            5.0222     4.2763    -2.9438 S.o2    
  22 C22            6.7459     4.7694    -3.2198 C.3     
  23 C23            3.0550     9.0624    -2.7132 C.3     
  24 C24            4.4668     9.2770    -2.1620 C.3     
  25 C25            7.6187     3.8424    -4.0682 C.3     
  26 C26            7.1446     5.1807    -4.6385 C.3     
  27 O27            4.9541     3.1941    -2.0254 O.2     
  28 O28            4.3112     4.2393    -4.1736 O.2     
  29 C29            2.9086     8.8907    -4.2032 C.2     
  30 C30            1.7167     8.8730    -4.7465 C.2     
  31 C31            2.4324     3.8009     4.2367 C.ar    
  32 C32            2.0160     3.6784     5.5830 C.ar    
  33 C33            3.7113     3.4267     3.9171 C.ar    
  34 C34            4.5657     2.9436     4.9173 C.ar    
  35 N35            4.1684     2.8377     6.1742 N.ar    
  36 C36            2.9310     3.1825     6.5445 C.ar    
  37 C37            5.9425     2.5429     4.5593 C.2     
  38 C38            2.5209     3.0658     7.8832 C.ar    
  39 C39            1.2411     3.4283     8.2364 C.ar    
  40 C40            0.3446     3.9109     7.2781 C.ar    
  41 C41            0.7190     4.0391     5.9759 C.ar    
  42 O42            0.8443     3.3156     9.5306 O.3     
  43 C43           -0.4958     3.7078     9.8348 C.3     
  44 N44            6.8346     2.0800     5.3878 N.2     
  45 C45            8.0087     1.7740     4.8913 C.2     
  46 C46            8.1564     1.9752     3.5755 C.2     
  47 S47            6.6380     2.6075     2.9419 S.3     
  48 C48            9.1230     1.2304     5.7480 C.3     
  49 C49            9.1184    -0.2982     5.6811 C.3     
  50 C50           10.4643     1.7592     5.2361 C.3     
  51 C51           -2.7512     5.6769    -1.1492 C.3     
  52 C52           -2.5465     2.8590     1.0468 C.3     
  53 C53            3.4766     2.5462     8.9261 C.3     
  54 H54            2.7535     3.4837     1.7541 H       
  55 H55            1.2500     4.0014    -0.0514 H       
  56 H56            1.5275     7.4424     1.5621 H       
  57 H57            3.0982     6.1318     2.6000 H       
  58 H58            3.6317     5.5249     1.0030 H       
  59 H59            3.7475     7.9961     0.1843 H       
  60 H60           -0.3372     3.5744     2.5134 H       
  61 H61           -0.0149     2.4044     1.2137 H       
  62 H62           -2.1601     5.2105     2.2118 H       
  63 H63           -3.9155     4.8359     0.4565 H       
  64 H64           -2.9075     7.7123     0.5926 H       
  65 H65           -4.5794     7.1843     0.2853 H       
  66 H66           -3.8374     6.9072     1.8793 H       
  67 H67            4.0448     5.4319    -1.2122 H       
  68 H68            7.2240     5.2916    -2.3910 H       
  69 H69            2.2361     9.5833    -2.2171 H       
  70 H70            4.5765     9.9394    -1.3033 H       
  71 H71            5.2892     9.2941    -2.8772 H       
  72 H72            8.6711     3.7551    -3.7978 H       
  73 H73            7.1572     2.9363    -4.4606 H       
  74 H74            6.3711     5.1549    -5.4061 H       
  75 H75            7.8850     5.9737    -4.7433 H       
  76 H76            3.7863     8.7823    -4.8231 H       
  77 H77            1.6117     8.7500    -5.8143 H       
  78 H78            0.8390     8.9814    -4.1266 H       
  79 H79            4.0595     3.5034     2.8976 H       
  80 H80           -0.6555     4.1898     7.5756 H       
  81 H81            0.0169     4.4132     5.2455 H       
  82 H82           -0.6348     4.7575     9.5762 H       
  83 H83           -1.1923     3.0968     9.2606 H       
  84 H84           -0.6824     3.5681    10.8996 H       
  85 H85            9.0501     1.7802     3.0013 H       
  86 H86            8.9766     1.5493     6.7799 H       
  87 H87            9.2648    -0.6171     4.6491 H       
  88 H88            9.9243    -0.6914     6.3007 H       
  89 H89            8.1628    -0.6749     6.0458 H       
  90 H90           10.4676     2.8482     5.2838 H       
  91 H91           11.2703     1.3660     5.8557 H       
  92 H92           10.6107     1.4403     4.2041 H       
  93 H93           -1.9711     6.4273    -1.2766 H       
  94 H94           -2.3831     4.7088    -1.4889 H       
  95 H95           -3.6259     5.9589    -1.7352 H       
  96 H96           -2.6728     2.7482     2.1237 H       
  97 H97           -3.4807     3.2059     0.6052 H       
  98 H98           -2.2743     1.8972     0.6121 H       
  99 H99            4.0293     3.3796     9.3598 H       
 100 H100           2.9169     2.0346     9.7092 H       
 101 H101           4.1748     1.8486     8.4637 H       
@<TRIPOS>BOND
   1    1   52 1
   2    1   11 1
   3    1   12 1
   4    2    3 1
   5    2    7 1
   6    2    6 1
   7    2   54 1
   8    3    4 1
   9    3   11 1
  10    3   55 1
  11    4    5 1
  12    4   13 am
  13    5    6 1
  14    5    8 1
  15    5   56 1
  16    6   57 1
  17    6   58 1
  18    7   31 1
  19    8    9 2
  20    8   10 am
  21   10   17 1
  22   10   59 1
  23   11   60 1
  24   11   61 1
  25   12   13 1
  26   12   15 1
  27   12   62 1
  28   13   14 2
  29   15   16 1
  30   15   51 1
  31   15   63 1
  32   16   64 1
  33   16   65 1
  34   16   66 1
  35   17   18 1
  36   17   23 1
  37   17   24 1
  38   18   19 am
  39   18   20 2
  40   19   21 am
  41   19   67 1
  42   21   22 1
  43   21   27 2
  44   21   28 2
  45   22   25 1
  46   22   26 1
  47   22   68 1
  48   23   24 1
  49   23   29 1
  50   23   69 1
  51   24   70 1
  52   24   71 1
  53   25   26 1
  54   25   72 1
  55   25   73 1
  56   26   74 1
  57   26   75 1
  58   29   30 2
  59   29   76 1
  60   30   77 1
  61   30   78 1
  62   31   32 ar
  63   31   33 ar
  64   32   36 ar
  65   32   41 ar
  66   33   34 ar
  67   33   79 1
  68   34   35 ar
  69   34   37 1
  70   35   36 ar
  71   36   38 ar
  72   37   44 2
  73   37   47 1
  74   38   39 ar
  75   38   53 1
  76   39   40 ar
  77   39   42 1
  78   40   41 ar
  79   40   80 1
  80   41   81 1
  81   42   43 1
  82   43   82 1
  83   43   83 1
  84   43   84 1
  85   44   45 1
  86   45   46 2
  87   45   48 1
  88   46   47 1
  89   46   85 1
  90   48   49 1
  91   48   50 1
  92   48   86 1
  93   49   87 1
  94   49   88 1
  95   49   89 1
  96   50   90 1
  97   50   91 1
  98   50   92 1
  99   51   93 1
 100   51   94 1
 101   51   95 1
 102   52   96 1
 103   52   97 1
 104   52   98 1
 105   53   99 1
 106   53  100 1
 107   53  101 1

#	End of record

