#	Name: ASD00960191
#	Creating user name:	WinNT
#	Creation time:	15. 06. 2019 18:53

#	Modifying user name:	WinNT
#	Modification time:	15. 06. 2019 18:53

#	Program:	/corina/corina34_cracker 3.40 0067  02.08.2006

@<TRIPOS>MOLECULE
ASD00960191
  33   35    0    0    0
SMALL
NO_CHARGES


@<TRIPOS>ATOM
   1 C1            -0.0168     1.3870     0.0097 C.2     
   2 C2             0.0021    -0.0041     0.0020 C.2     
   3 N3             1.2768     1.8316    -0.0003 N.pl3   
   4 C4             2.1111     0.7406    -0.0141 C.2     
   5 C5             1.3273    -0.4049    -0.0128 C.2     
   6 N6             1.8468     3.1122     0.0011 N.2     
   7 C7             3.1551     3.2490    -0.0106 C.2     
   8 N8             3.9767     2.1918    -0.0241 N.2     
   9 C9             3.5118     0.9572    -0.0259 C.2     
  10 N10            4.3823    -0.1149    -0.0401 N.pl3   
  11 C11            3.7166     4.5663    -0.0094 C.1     
  12 N12            4.1622     5.6113    -0.0084 N.1     
  13 C13           -1.2120     2.2279     0.0201 C.2     
  14 O14           -2.3159     1.7161     0.0232 O.2     
  15 O15           -1.0914     3.5719     0.0263 O.3     
  16 C16           -2.3016     4.3318     0.0364 C.3     
  17 C17           -1.9713     5.8022     0.0422 C.ar    
  18 C18           -1.8261     6.4826    -1.1523 C.ar    
  19 C19           -1.5231     7.8314    -1.1470 C.ar    
  20 C20           -1.3659     8.4997     0.0528 C.ar    
  21 C21           -1.5121     7.8195     1.2473 C.ar    
  22 C22           -1.8193     6.4717     1.2420 C.ar    
  23 H23           -0.8607    -0.6537     0.0068 H       
  24 H24            1.6859    -1.4236    -0.0211 H       
  25 H25            5.3401     0.0382    -0.0489 H       
  26 H26            4.0359    -1.0209    -0.0414 H       
  27 H27           -2.8871     4.0944    -0.8518 H       
  28 H28           -2.8779     4.0854     0.9282 H       
  29 H29           -1.9489     5.9604    -2.0896 H       
  30 H30           -1.4089     8.3628    -2.0802 H       
  31 H31           -1.1285     9.5533     0.0569 H       
  32 H32           -1.3889     8.3416     2.1846 H       
  33 H33           -1.9372     5.9411     2.1752 H       
@<TRIPOS>BOND
   1    1    2 2
   2    1    3 1
   3    1   13 1
   4    2    5 1
   5    2   23 1
   6    3    4 1
   7    3    6 1
   8    4    5 2
   9    4    9 1
  10    5   24 1
  11    6    7 2
  12    7    8 1
  13    7   11 1
  14    8    9 2
  15    9   10 1
  16   10   25 1
  17   10   26 1
  18   11   12 3
  19   13   14 2
  20   13   15 1
  21   15   16 1
  22   16   17 1
  23   16   27 1
  24   16   28 1
  25   17   18 ar
  26   17   22 ar
  27   18   19 ar
  28   18   29 1
  29   19   20 ar
  30   19   30 1
  31   20   21 ar
  32   20   31 1
  33   21   22 ar
  34   21   32 1
  35   22   33 1

#	End of record

