#	Name: ASD01811303
#	Creating user name:	WinNT
#	Creation time:	15. 06. 2019 19:26

#	Modifying user name:	WinNT
#	Modification time:	15. 06. 2019 19:26

#	Program:	/corina/corina34_cracker 3.40 0067  02.08.2006

@<TRIPOS>MOLECULE
ASD01811303
  65   69    0    0    0
SMALL
NO_CHARGES


@<TRIPOS>ATOM
   1 C1            -2.4842    -3.0889    -0.1327 C.2     
   2 C2            -1.2009    -2.3819     0.0870 C.ar    
   3 C3            -1.1744    -1.0968     0.6413 C.ar    
   4 C4             0.0409    -0.4707     0.8306 C.ar    
   5 N5             1.1701    -1.0647     0.4971 N.ar    
   6 C6             1.1938    -2.2787    -0.0299 C.ar    
   7 C7             0.0137    -2.9816    -0.2478 C.ar    
   8 O8            -2.4886    -4.2042    -0.6151 O.2     
   9 N9            -3.6464    -2.4973     0.2075 N.am    
  10 C10           -4.9154    -3.1964    -0.0098 C.3     
  11 C11           -6.1002    -2.8008     0.8737 C.3     
  12 C12           -6.0741    -2.3903    -0.6000 C.3     
  13 N13            2.4126    -2.8601    -0.3639 N.pl3   
  14 C14            3.5888    -2.1081    -0.2916 C.ar    
  15 C15            4.7990    -2.7350    -0.0171 C.ar    
  16 C16            5.9646    -1.9960     0.0549 C.ar    
  17 C17            5.9352    -0.6306    -0.1452 C.ar    
  18 C18            4.7253     0.0085    -0.4209 C.ar    
  19 C19            3.5496    -0.7379    -0.4993 C.ar    
  20 C20            4.8399    -4.2253     0.2032 C.3     
  21 C21            4.6910     1.4712    -0.6347 C.2     
  22 O22            3.7210     2.1141    -0.2838 O.2     
  23 N23            5.7353     2.0916    -1.2188 N.am    
  24 C24            5.7680     3.5561    -1.3320 C.3     
  25 C25            6.0052     3.9321    -2.7981 C.3     
  26 C26            7.2710     3.2342    -3.3011 C.3     
  27 C27            7.0877     1.7173    -3.2151 C.3     
  28 C28            6.8654     1.3166    -1.7488 C.3     
  29 C29            7.5263     3.6287    -4.7330 C.ar    
  30 C30            8.7058     4.2680    -5.0713 C.ar    
  31 C31            8.9460     4.6319    -6.3800 C.ar    
  32 C32            7.9958     4.3531    -7.3644 C.ar    
  33 C33            6.8079     3.7071    -7.0161 C.ar    
  34 C34            6.5827     3.3446    -5.7043 C.ar    
  35 C35            8.2383     4.7283    -8.7250 C.1     
  36 N36            8.4306     5.0259    -9.8043 N.1     
  37 H37           -2.0935    -0.6013     0.9172 H       
  38 H38            0.0675     0.5208     1.2578 H       
  39 H39            0.0368    -3.9740    -0.6734 H       
  40 H40           -3.6427    -1.6086     0.5962 H       
  41 H41           -4.8314    -4.2438    -0.2997 H       
  42 H42           -6.7960    -3.5877     1.1646 H       
  43 H43           -5.9356    -2.0203     1.6165 H       
  44 H44           -5.8922    -1.3397    -0.8267 H       
  45 H45           -6.7527    -2.9072    -1.2786 H       
  46 H46            2.4464    -3.7872    -0.6470 H       
  47 H47            6.9017    -2.4884     0.2689 H       
  48 H48            6.8483    -0.0567    -0.0880 H       
  49 H49            2.6112    -0.2495    -0.7172 H       
  50 H50            5.0030    -4.7290    -0.7496 H       
  51 H51            5.6527    -4.4693     0.8871 H       
  52 H52            3.8933    -4.5553     0.6313 H       
  53 H53            4.8165     3.9698    -0.9981 H       
  54 H54            6.5768     3.9521    -0.7178 H       
  55 H55            5.1520     3.6147    -3.3976 H       
  56 H56            6.1275     5.0120    -2.8815 H       
  57 H57            8.1194     3.5330    -2.6855 H       
  58 H58            6.2243     1.4208    -3.8107 H       
  59 H59            7.9805     1.2208    -3.5953 H       
  60 H60            7.7618     1.5337    -1.1678 H       
  61 H61            6.6382     0.2522    -1.6898 H       
  62 H62            9.4399     4.4831    -4.3089 H       
  63 H63            9.8668     5.1315    -6.6426 H       
  64 H64            6.0687     3.4885    -7.7726 H       
  65 H65            5.6661     2.8413    -5.4341 H       
@<TRIPOS>BOND
   1    1    2 1
   2    1    8 2
   3    1    9 am
   4    2    3 ar
   5    2    7 ar
   6    3    4 ar
   7    3   37 1
   8    4    5 ar
   9    4   38 1
  10    5    6 ar
  11    6    7 ar
  12    6   13 1
  13    7   39 1
  14    9   10 1
  15    9   40 1
  16   10   11 1
  17   10   12 1
  18   10   41 1
  19   11   12 1
  20   11   42 1
  21   11   43 1
  22   12   44 1
  23   12   45 1
  24   13   14 1
  25   13   46 1
  26   14   15 ar
  27   14   19 ar
  28   15   16 ar
  29   15   20 1
  30   16   17 ar
  31   16   47 1
  32   17   18 ar
  33   17   48 1
  34   18   19 ar
  35   18   21 1
  36   19   49 1
  37   20   50 1
  38   20   51 1
  39   20   52 1
  40   21   22 2
  41   21   23 am
  42   23   24 1
  43   23   28 1
  44   24   25 1
  45   24   53 1
  46   24   54 1
  47   25   26 1
  48   25   55 1
  49   25   56 1
  50   26   27 1
  51   26   29 1
  52   26   57 1
  53   27   28 1
  54   27   58 1
  55   27   59 1
  56   28   60 1
  57   28   61 1
  58   29   30 ar
  59   29   34 ar
  60   30   31 ar
  61   30   62 1
  62   31   32 ar
  63   31   63 1
  64   32   33 ar
  65   32   35 1
  66   33   34 ar
  67   33   64 1
  68   34   65 1
  69   35   36 3

#	End of record

