#	Name: ASD03092334
#	Creating user name:	WinNT
#	Creation time:	15. 06. 2019 20:32

#	Modifying user name:	WinNT
#	Modification time:	15. 06. 2019 20:32

#	Program:	/corina/corina34_cracker 3.40 0067  02.08.2006

@<TRIPOS>MOLECULE
ASD03092334
  58   60    0    0    0
SMALL
NO_CHARGES


@<TRIPOS>ATOM
   1 C1             0.3371     2.0144     0.1473 C.2     
   2 C2             0.5530     0.5252     0.2296 C.3     
   3 C3            -0.1047    -0.1528    -0.9740 C.3     
   4 O4             1.2896     2.7631     0.0914 O.2     
   5 N5            -0.9146     2.5139     0.1302 N.am    
   6 C6             2.0536     0.2265     0.2261 C.3     
   7 C7            -1.1245     3.9616     0.0502 C.3     
   8 S8            -4.9834     4.7566    -0.6387 S.3     
   9 C9            -4.5798     4.6084     1.0157 C.2     
  10 N10           -3.3134     4.3513     1.1494 N.2     
  11 C11           -2.6026     4.2554     0.0469 C.2     
  12 C12           -3.3091     4.4424    -1.0876 C.2     
  13 C13           -2.5485     5.3138    -4.6606 C.ar    
  14 C14           -3.0708     5.4006    -3.3883 C.ar    
  15 C15           -2.7735     4.3920    -2.4620 C.ar    
  16 C16           -1.9532     3.3345    -2.8772 C.ar    
  17 C17           -1.4749     3.3281    -4.1696 C.ar    
  18 N18           -1.7794     4.2994    -5.0103 N.ar    
  19 C19           -0.5917     2.1969    -4.6294 C.3     
  20 C20           -2.8652     6.3883    -5.6688 C.3     
  21 N21           -5.4737     4.7434     2.0624 N.3     
  22 C22           -6.8268     5.0325     1.5658 C.3     
  23 C23           -7.7693     5.2329     2.7555 C.3     
  24 O24           -7.7346     4.0691     3.5860 O.3     
  25 C25           -6.4318     3.7585     4.0878 C.3     
  26 C26           -5.4758     3.5432     2.9115 C.3     
  27 C27           -6.4996     2.4837     4.9310 C.3     
  28 C28           -9.1949     5.4547     2.2462 C.3     
  29 H29            0.1088     0.1439     1.1490 H       
  30 H30           -1.1737     0.0600    -0.9715 H       
  31 H31            0.3395     0.2285    -1.8935 H       
  32 H32            0.0515    -1.2299    -0.9145 H       
  33 H33           -1.6764     1.9149     0.1709 H       
  34 H34            2.5222     0.7096     1.0835 H       
  35 H35            2.2098    -0.8506     0.2856 H       
  36 H36            2.4978     0.6078    -0.6934 H       
  37 H37           -0.6601     4.4441     0.9102 H       
  38 H38           -0.6760     4.3436    -0.8668 H       
  39 H39           -3.6989     6.2336    -3.1092 H       
  40 H40           -1.6994     2.5369    -2.1947 H       
  41 H41           -1.2085     1.4000    -5.0448 H       
  42 H42            0.0956     2.5601    -5.3935 H       
  43 H43           -0.0232     1.8125    -3.7826 H       
  44 H44           -2.1141     7.1759    -5.6083 H       
  45 H45           -2.8615     5.9589    -6.6706 H       
  46 H46           -3.8488     6.8071    -5.4566 H       
  47 H47           -6.8065     5.9390     0.9608 H       
  48 H48           -7.1782     4.1975     0.9597 H       
  49 H49           -7.4487     6.1009     3.3316 H       
  50 H50           -6.0724     4.5837     4.7026 H       
  51 H51           -5.8056     2.6844     2.3270 H       
  52 H52           -4.4693     3.3626     3.2889 H       
  53 H53           -6.8574     1.6590     4.3146 H       
  54 H54           -5.5065     2.2475     5.3131 H       
  55 H55           -7.1834     2.6363     5.7661 H       
  56 H56           -9.5150     4.5853     1.6720 H       
  57 H57           -9.8654     5.5973     3.0937 H       
  58 H58           -9.2199     6.3396     1.6102 H       
@<TRIPOS>BOND
   1    1    2 1
   2    1    4 2
   3    1    5 am
   4    2    3 1
   5    2    6 1
   6    2   29 1
   7    3   30 1
   8    3   31 1
   9    3   32 1
  10    5    7 1
  11    5   33 1
  12    6   34 1
  13    6   35 1
  14    6   36 1
  15    7   11 1
  16    7   37 1
  17    7   38 1
  18    8    9 1
  19    8   12 1
  20    9   10 2
  21    9   21 1
  22   10   11 1
  23   11   12 2
  24   12   15 1
  25   13   14 ar
  26   13   18 ar
  27   13   20 1
  28   14   15 ar
  29   14   39 1
  30   15   16 ar
  31   16   17 ar
  32   16   40 1
  33   17   18 ar
  34   17   19 1
  35   19   41 1
  36   19   42 1
  37   19   43 1
  38   20   44 1
  39   20   45 1
  40   20   46 1
  41   21   22 1
  42   21   26 1
  43   22   23 1
  44   22   47 1
  45   22   48 1
  46   23   24 1
  47   23   28 1
  48   23   49 1
  49   24   25 1
  50   25   26 1
  51   25   27 1
  52   25   50 1
  53   26   51 1
  54   26   52 1
  55   27   53 1
  56   27   54 1
  57   27   55 1
  58   28   56 1
  59   28   57 1
  60   28   58 1

#	End of record

