#	Name: ASD03092770
#	Creating user name:	WinNT
#	Creation time:	15. 06. 2019 20:33

#	Modifying user name:	WinNT
#	Modification time:	15. 06. 2019 20:33

#	Program:	/corina/corina34_cracker 3.40 0067  02.08.2006

@<TRIPOS>MOLECULE
ASD03092770
  43   45    0    0    0
SMALL
NO_CHARGES


@<TRIPOS>ATOM
   1 C1             5.9155    -4.2732    -4.2580 C.3     
   2 O2             4.7802    -4.4563    -3.4098 O.3     
   3 C3             4.8718    -3.9718    -2.1424 C.ar    
   4 C4             6.0264    -3.3296    -1.7268 C.ar    
   5 C5             6.1189    -2.8377    -0.4376 C.ar    
   6 C6             5.0599    -2.9851     0.4403 C.ar    
   7 Cl7            5.1826    -2.3653     2.0572 Cl      
   8 C8             3.9033    -3.6251     0.0322 C.ar    
   9 C9             3.8023    -4.1155    -1.2610 C.ar    
  10 N10            2.6297    -4.7589    -1.6786 N.am    
  11 C11            1.4484    -4.4403    -1.1133 C.2     
  12 O12            1.4101    -3.6548    -0.1899 O.2     
  13 C13            0.1750    -5.0601    -1.6286 C.3     
  14 H14           -0.0650    -4.8444    -2.6698 H       
  15 C15           -0.9917    -5.1960    -0.6482 C.3     
  16 H16           -0.8382    -4.8371     0.3695 H       
  17 C17           -2.3848    -5.0214    -1.1959 C.ar    
  18 C18           -2.5844    -4.9327    -2.5609 C.ar    
  19 C19           -3.8618    -4.7726    -3.0638 C.ar    
  20 C20           -4.9408    -4.7010    -2.2007 C.ar    
  21 Cl21          -6.5456    -4.5004    -2.8317 Cl      
  22 C22           -4.7403    -4.7897    -0.8347 C.ar    
  23 C23           -3.4631    -4.9556    -0.3333 C.ar    
  24 C24           -0.2104    -6.4376    -1.0855 C.3     
  25 C25           -0.9038    -7.4066    -2.0453 C.3     
  26 C26            0.7264    -7.0804    -0.0608 C.3     
  27 H27            6.7816    -4.7672    -3.8175 H       
  28 H28            5.7104    -4.7046    -5.2377 H       
  29 H29            6.1205    -3.2081    -4.3657 H       
  30 H30            6.8550    -3.2132    -2.4096 H       
  31 H31            7.0201    -2.3375    -0.1153 H       
  32 H32            3.0780    -3.7394     0.7194 H       
  33 H33            2.6681    -5.4336    -2.3744 H       
  34 H34           -1.7421    -4.9883    -3.2345 H       
  35 H35           -4.0177    -4.7030    -4.1302 H       
  36 H36           -5.5822    -4.7336    -0.1605 H       
  37 H37           -3.3069    -5.0296     0.7328 H       
  38 H38           -0.2347    -8.2376    -2.2688 H       
  39 H39           -1.8141    -7.7875    -1.5823 H       
  40 H40           -1.1565    -6.8852    -2.9685 H       
  41 H41            0.8752    -6.3964     0.7747 H       
  42 H42            0.2850    -8.0081     0.3032 H       
  43 H43            1.6865    -7.2946    -0.5305 H       
@<TRIPOS>BOND
   1    1    2 1
   2    1   27 1
   3    1   28 1
   4    1   29 1
   5    2    3 1
   6    3    9 ar
   7    3    4 ar
   8    4    5 ar
   9    4   30 1
  10    5    6 ar
  11    5   31 1
  12    6    7 1
  13    6    8 ar
  14    8    9 ar
  15    8   32 1
  16    9   10 1
  17   10   11 am
  18   10   33 1
  19   11   12 2
  20   11   13 1
  21   13   14 1
  22   13   24 1
  23   13   15 1
  24   15   16 1
  25   15   17 1
  26   15   24 1
  27   17   23 ar
  28   17   18 ar
  29   18   19 ar
  30   18   34 1
  31   19   20 ar
  32   19   35 1
  33   20   21 1
  34   20   22 ar
  35   22   23 ar
  36   22   36 1
  37   23   37 1
  38   24   25 1
  39   24   26 1
  40   25   38 1
  41   25   39 1
  42   25   40 1
  43   26   41 1
  44   26   42 1
  45   26   43 1

#	End of record

