#	Name: ASD03331243
#	Creating user name:	WinNT
#	Creation time:	15. 06. 2019 20:38

#	Modifying user name:	WinNT
#	Modification time:	15. 06. 2019 20:38

#	Program:	/corina/corina34_cracker 3.40 0067  02.08.2006

@<TRIPOS>MOLECULE
ASD03331243
  60   63    0    0    0
SMALL
NO_CHARGES


@<TRIPOS>ATOM
   1 N1             0.0878     2.0573     0.4304 N.am    
   2 C2            -0.0548     0.7432     1.0755 C.3     
   3 C3             0.4484    -0.3320     0.1065 C.3     
   4 N4             1.8117     0.0028    -0.3263 N.3     
   5 C5             1.8385     1.2684    -1.0717 C.3     
   6 C6             1.3922     2.4092    -0.1510 C.3     
   7 C7            -0.9508     2.9140     0.3686 C.2     
   8 O8            -2.0490     2.5671     0.7587 O.2     
   9 N9            -0.7722     4.1551    -0.1255 N.am    
  10 C10           -1.8749     4.9921    -0.3303 C.ar    
  11 C11           -1.7479     6.3644    -0.1602 C.ar    
  12 C12           -2.8379     7.1878    -0.3636 C.ar    
  13 C13           -4.0548     6.6470    -0.7361 C.ar    
  14 C14           -4.1846     5.2809    -0.9063 C.ar    
  15 C15           -3.0970     4.4526    -0.7096 C.ar    
  16 C16            2.3950    -1.0876    -1.1192 C.3     
  17 C17            3.6818    -0.6187    -1.7480 C.ar    
  18 C18            4.8781    -0.7791    -1.0735 C.ar    
  19 C19            6.0591    -0.3502    -1.6477 C.ar    
  20 C20            6.0441     0.2420    -2.9022 C.ar    
  21 C21            4.8424     0.4018    -3.5769 C.ar    
  22 C22            3.6649    -0.0339    -3.0008 C.ar    
  23 O23            7.2044     0.6652    -3.4690 O.3     
  24 C24            8.4148     0.3632    -2.7721 C.3     
  25 C25            9.5794     0.3286    -3.7638 C.3     
  26 C26            8.6767     1.4382    -1.7153 C.3     
  27 C27            9.9727     1.1148    -0.9691 C.3     
  28 C28           11.1372     1.0802    -1.9609 C.3     
  29 C29           10.8753     0.0052    -3.0176 C.3     
  30 H30            0.5376     0.7181     1.9901 H       
  31 H31           -1.1038     0.5625     1.3103 H       
  32 H32            0.4533    -1.2998     0.6078 H       
  33 H33           -0.2087    -0.3751    -0.7621 H       
  34 H34            2.8515     1.4612    -1.4248 H       
  35 H35            1.1620     1.2030    -1.9239 H       
  36 H36            1.2999     3.3299    -0.7271 H       
  37 H37            2.1237     2.5442     0.6457 H       
  38 H38            0.1206     4.4681    -0.3393 H       
  39 H39           -0.7978     6.7873     0.1311 H       
  40 H40           -2.7398     8.2552    -0.2311 H       
  41 H41           -4.9058     7.2930    -0.8942 H       
  42 H42           -5.1363     4.8615    -1.1973 H       
  43 H43           -3.1978     3.3862    -0.8471 H       
  44 H44            2.5970    -1.9403    -0.4711 H       
  45 H45            1.6952    -1.3830    -1.9009 H       
  46 H46            4.8892    -1.2398    -0.0967 H       
  47 H47            6.9932    -0.4754    -1.1203 H       
  48 H48            4.8281     0.8625    -4.5536 H       
  49 H49            2.7292     0.0902    -3.5256 H       
  50 H50            8.3219    -0.6084    -2.2868 H       
  51 H51            9.3928    -0.4372    -4.5167 H       
  52 H52            9.6723     1.3002    -4.2491 H       
  53 H53            8.7696     2.4097    -2.2006 H       
  54 H54            7.8471     1.4628    -1.0088 H       
  55 H55           10.1592     1.8806    -0.2162 H       
  56 H56            9.8797     0.1432    -0.4838 H       
  57 H57           11.2301     2.0518    -2.4462 H       
  58 H58           12.0604     0.8498    -1.4293 H       
  59 H59           10.7824    -0.9664    -2.5323 H       
  60 H60           11.7049    -0.0194    -3.7242 H       
@<TRIPOS>BOND
   1    1    2 1
   2    1    6 1
   3    1    7 am
   4    2    3 1
   5    2   30 1
   6    2   31 1
   7    3    4 1
   8    3   32 1
   9    3   33 1
  10    4    5 1
  11    4   16 1
  12    5    6 1
  13    5   34 1
  14    5   35 1
  15    6   36 1
  16    6   37 1
  17    7    8 2
  18    7    9 am
  19    9   10 1
  20    9   38 1
  21   10   11 ar
  22   10   15 ar
  23   11   12 ar
  24   11   39 1
  25   12   13 ar
  26   12   40 1
  27   13   14 ar
  28   13   41 1
  29   14   15 ar
  30   14   42 1
  31   15   43 1
  32   16   17 1
  33   16   44 1
  34   16   45 1
  35   17   18 ar
  36   17   22 ar
  37   18   19 ar
  38   18   46 1
  39   19   20 ar
  40   19   47 1
  41   20   21 ar
  42   20   23 1
  43   21   22 ar
  44   21   48 1
  45   22   49 1
  46   23   24 1
  47   24   25 1
  48   24   26 1
  49   24   50 1
  50   25   29 1
  51   25   51 1
  52   25   52 1
  53   26   27 1
  54   26   53 1
  55   26   54 1
  56   27   28 1
  57   27   55 1
  58   27   56 1
  59   28   29 1
  60   28   57 1
  61   28   58 1
  62   29   59 1
  63   29   60 1

#	End of record

