#	Name: ASD07300878
#	Creating user name:	WinNT
#	Creation time:	15. 06. 2019 21:10

#	Modifying user name:	WinNT
#	Modification time:	15. 06. 2019 21:10

#	Program:	/corina/corina34_cracker 3.40 0067  02.08.2006

@<TRIPOS>MOLECULE
ASD07300878
  48   52    0    0    0
SMALL
NO_CHARGES


@<TRIPOS>ATOM
   1 N1            -0.0267     1.3758     0.1537 N.am    
   2 C2            -0.0003     0.0254     0.0237 C.2     
   3 N3             1.1017    -0.6536    -0.1047 N.2     
   4 C4             2.3043    -0.0573    -0.1180 C.2     
   5 C5             2.3774     1.3387     0.0101 C.2     
   6 C6             1.1269     2.0840     0.1538 C.2     
   7 N7             3.5818    -0.5036    -0.2345 N.pl3   
   8 N8             4.4407     0.6014    -0.1797 N.2     
   9 C9             3.7390     1.6917    -0.0355 C.2     
  10 O10            1.1238     3.2969     0.2686 O.2     
  11 C11            3.9914    -1.9015    -0.3904 C.3     
  12 C12            4.6464    -2.0914    -1.7600 C.3     
  13 C13            5.0741    -3.5513    -1.9228 C.3     
  14 C14            6.0748    -3.9151    -0.8241 C.3     
  15 C15            5.4198    -3.7253     0.5455 C.3     
  16 C16            4.9920    -2.2654     0.7083 C.3     
  17 C17           -1.3086    -0.7225     0.0288 C.3     
  18 C18           -1.8258    -1.0496     1.4396 C.3     
  19 C19           -2.2509    -2.4179     0.8813 C.3     
  20 C20           -1.1526    -2.2381    -0.1799 C.3     
  21 C21           -0.7364    -1.1331     2.4776 C.2     
  22 O22           -0.5689    -0.3056     3.5228 O.3     
  23 C23            0.5164    -0.7440     4.1826 C.2     
  24 N24            0.9651    -1.7882     3.5458 N.2     
  25 N25            0.2125    -2.0243     2.5293 N.2     
  26 C26            1.1064    -0.1388     5.4303 C.3     
  27 F27            6.4659    -5.2501    -0.9730 F       
  28 F28            7.1976    -3.0865    -0.9229 F       
  29 H29           -0.8759     1.8359     0.2429 H       
  30 H30            4.1352     2.6938     0.0364 H       
  31 H31            3.1166    -2.5472    -0.3134 H       
  32 H32            3.9335    -1.8322    -2.5428 H       
  33 H33            5.5212    -1.4457    -1.8370 H       
  34 H34            4.1993    -4.1970    -1.8458 H       
  35 H35            5.5408    -3.6866    -2.8986 H       
  36 H36            4.5449    -4.3709     0.6225 H       
  37 H37            6.1326    -3.9845     1.3283 H       
  38 H38            5.8669    -1.6197     0.6313 H       
  39 H39            4.5254    -2.1301     1.6840 H       
  40 H40           -2.0594    -0.2666    -0.6166 H       
  41 H41           -2.6634    -0.4264     1.7530 H       
  42 H42           -2.0653    -3.2456     1.5658 H       
  43 H43           -3.2597    -2.4267     0.4685 H       
  44 H44           -1.4468    -2.5745    -1.1741 H       
  45 H45           -0.1806    -2.6235     0.1280 H       
  46 H46            0.7192    -0.6607     6.3054 H       
  47 H47            2.1919    -0.2332     5.4017 H       
  48 H48            0.8348     0.9154     5.4862 H       
@<TRIPOS>BOND
   1    1    2 1
   2    1    6 am
   3    1   29 1
   4    2    3 2
   5    2   17 1
   6    3    4 1
   7    4    5 2
   8    4    7 1
   9    5    6 1
  10    5    9 1
  11    6   10 2
  12    7    8 1
  13    7   11 1
  14    8    9 2
  15    9   30 1
  16   11   12 1
  17   11   16 1
  18   11   31 1
  19   12   13 1
  20   12   32 1
  21   12   33 1
  22   13   14 1
  23   13   34 1
  24   13   35 1
  25   14   15 1
  26   14   27 1
  27   14   28 1
  28   15   16 1
  29   15   36 1
  30   15   37 1
  31   16   38 1
  32   16   39 1
  33   17   18 1
  34   17   20 1
  35   17   40 1
  36   18   19 1
  37   18   21 1
  38   18   41 1
  39   19   20 1
  40   19   42 1
  41   19   43 1
  42   20   44 1
  43   20   45 1
  44   21   22 1
  45   21   25 2
  46   22   23 1
  47   23   24 2
  48   23   26 1
  49   24   25 1
  50   26   46 1
  51   26   47 1
  52   26   48 1

#	End of record

