#	Name: ASD03320230
#	Creating user name:	WinNT
#	Creation time:	15. 06. 2019 20:36

#	Modifying user name:	WinNT
#	Modification time:	15. 06. 2019 20:36

#	Program:	/corina/corina34_cracker 3.40 0067  02.08.2006

@<TRIPOS>MOLECULE
ASD03320230
  53   56    0    0    0
SMALL
NO_CHARGES


@<TRIPOS>ATOM
   1 C1            -0.2139     1.3327     0.8942 C.ar    
   2 N2            -0.2193     0.0053     0.9730 N.ar    
   3 C3             0.8943    -0.6690     1.1975 C.ar    
   4 N4             2.0604    -0.0818     1.3550 N.ar    
   5 C5             1.0075     2.0050     1.0558 C.ar    
   6 C6             1.4269     3.4086     1.0408 C.2     
   7 C7             2.1676     1.2452     1.2931 C.ar    
   8 N8             3.2023     2.1258     1.4117 N.pl3   
   9 N9             2.7248     3.4311     1.2540 N.2     
  10 N10           -1.3808     2.0324     0.6536 N.pl3   
  11 C11            4.5984     1.7609     1.6646 C.3     
  12 C12            5.4724     2.2574     0.5111 C.3     
  13 C13            5.0650     2.4048     2.9718 C.3     
  14 C14            0.5810     4.5451     0.8321 C.1     
  15 C15           -0.1124     5.4768     0.6610 C.1     
  16 C16           -0.9583     6.6133     0.4522 C.ar    
  17 C17           -2.6155     8.8076     0.0463 C.ar    
  18 C18           -3.1457     7.5323     0.0405 C.ar    
  19 C19           -2.3297     6.4375     0.2413 C.ar    
  20 C20           -0.4177     7.8992     0.4645 C.ar    
  21 C21           -1.2486     8.9989     0.2610 C.ar    
  22 C22           -0.6836    10.3650     0.2661 C.2     
  23 N23           -1.4877    11.4275     0.0635 N.am    
  24 C24           -0.9726    12.7237     0.1653 C.ar    
  25 C25            0.8281    14.2744    -0.1556 C.ar    
  26 C26            0.3226    12.9930    -0.2571 C.ar    
  27 C27           -1.7575    13.7459     0.6837 C.ar    
  28 C28           -1.2461    15.0247     0.7825 C.ar    
  29 C29            0.0461    15.2885     0.3658 C.ar    
  30 C30           -2.0970    16.1343     1.3444 C.3     
  31 F31           -1.9147    16.2060     2.7296 F       
  32 F32           -1.7229    17.3498     0.7613 F       
  33 F33           -3.4433    15.8773     1.0639 F       
  34 O34            0.5061    10.5301     0.4531 O.2     
  35 H35            0.8449    -1.7463     1.2544 H       
  36 H36           -2.2177     1.5554     0.5399 H       
  37 H37           -1.3632     3.0007     0.5985 H       
  38 H38            4.6821     0.6770     1.7434 H       
  39 H39            5.3887     3.3414     0.4324 H       
  40 H40            6.5111     1.9860     0.6994 H       
  41 H41            5.1400     1.7987    -0.4201 H       
  42 H42            4.4424     2.0510     3.7935 H       
  43 H43            6.1038     2.1333     3.1600 H       
  44 H44            4.9813     3.4887     2.8930 H       
  45 H45           -3.2602     9.6596    -0.1116 H       
  46 H46           -4.2034     7.3908    -0.1260 H       
  47 H47           -2.7509     5.4430     0.2351 H       
  48 H48            0.6398     8.0416     0.6313 H       
  49 H49           -2.4236    11.2931    -0.1530 H       
  50 H50            1.8355    14.4844    -0.4836 H       
  51 H51            0.9341    12.2013    -0.6641 H       
  52 H52           -2.7667    13.5406     1.0090 H       
  53 H53            0.4439    16.2895     0.4444 H       
@<TRIPOS>BOND
   1    1    2 ar
   2    1    5 ar
   3    1   10 1
   4    2    3 ar
   5    3    4 ar
   6    3   35 1
   7    4    7 ar
   8    5    7 ar
   9    5    6 1
  10    6    9 2
  11    6   14 1
  12    7    8 1
  13    8    9 1
  14    8   11 1
  15   10   36 1
  16   10   37 1
  17   11   12 1
  18   11   13 1
  19   11   38 1
  20   12   39 1
  21   12   40 1
  22   12   41 1
  23   13   42 1
  24   13   43 1
  25   13   44 1
  26   14   15 3
  27   15   16 1
  28   16   20 ar
  29   16   19 ar
  30   17   18 ar
  31   17   21 ar
  32   17   45 1
  33   18   19 ar
  34   18   46 1
  35   19   47 1
  36   20   21 ar
  37   20   48 1
  38   21   22 1
  39   22   23 am
  40   22   34 2
  41   23   24 1
  42   23   49 1
  43   24   27 ar
  44   24   26 ar
  45   25   26 ar
  46   25   29 ar
  47   25   50 1
  48   26   51 1
  49   27   28 ar
  50   27   52 1
  51   28   29 ar
  52   28   30 1
  53   29   53 1
  54   30   31 1
  55   30   32 1
  56   30   33 1

#	End of record

