#	Name: ASD01420460
#	Creating user name:	WinNT
#	Creation time:	15. 06. 2019 19:20

#	Modifying user name:	WinNT
#	Modification time:	15. 06. 2019 19:20

#	Program:	/corina/corina34_cracker 3.40 0067  02.08.2006

@<TRIPOS>MOLECULE
ASD01420460
  38   40    0    0    0
SMALL
NO_CHARGES


@<TRIPOS>ATOM
   1 C1            -0.0180     1.4763     0.0102 C.3     
   2 N2             0.0021    -0.0041     0.0020 N.3     
   3 C3             1.2740    -0.3385    -0.6779 C.3     
   4 C4             2.1990     0.8269    -0.4099 C.ar    
   5 C5             3.5716     0.9540    -0.5067 C.ar    
   6 C6             4.1786     2.1561    -0.1955 C.ar    
   7 C7             3.4124     3.2324     0.2121 C.ar    
   8 C8             2.0394     3.1062     0.3088 C.ar    
   9 C9             1.4318     1.9045    -0.0014 C.ar    
  10 C10            5.6756     2.2938    -0.3008 C.3     
  11 N11            6.0318     2.7454    -1.6526 N.3     
  12 C12            7.4515     3.1181    -1.7263 C.3     
  13 C13            7.8003     3.5057    -3.1652 C.3     
  14 N14            6.9432     4.6210    -3.5908 N.3     
  15 C15            5.5236     4.2483    -3.5171 C.3     
  16 C16            5.1748     3.8607    -2.0782 C.3     
  17 C17            7.2995     5.0725    -4.9425 C.3     
  18 H18           -0.5283     1.8508    -0.8772 H       
  19 H19           -0.5112     1.8412     0.9111 H       
  20 H20           -0.0130    -0.3711     0.9418 H       
  21 H21            1.6932    -1.2550    -0.2628 H       
  22 H22            1.1100    -0.4503    -1.7496 H       
  23 H23            4.1703     0.1135    -0.8253 H       
  24 H24            3.8868     4.1717     0.4553 H       
  25 H25            1.4412     3.9470     0.6275 H       
  26 H26            6.0257     3.0229     0.4299 H       
  27 H27            6.1439     1.3293    -0.1048 H       
  28 H28            7.6400     3.9644    -1.0658 H       
  29 H29            8.0660     2.2721    -1.4184 H       
  30 H30            8.8457     3.8103    -3.2165 H       
  31 H31            7.6376     2.6509    -3.8217 H       
  32 H32            4.9091     5.0943    -3.8250 H       
  33 H33            5.3351     3.4020    -4.1776 H       
  34 H34            4.1294     3.5561    -2.0269 H       
  35 H35            5.3374     4.7154    -1.4217 H       
  36 H36            7.1756     4.2486    -5.6453 H       
  37 H37            6.6499     5.8984    -5.2327 H       
  38 H38            8.3373     5.4057    -4.9526 H       
@<TRIPOS>BOND
   1    1    2 1
   2    1    9 1
   3    1   18 1
   4    1   19 1
   5    2    3 1
   6    2   20 1
   7    3    4 1
   8    3   21 1
   9    3   22 1
  10    4    5 ar
  11    4    9 ar
  12    5    6 ar
  13    5   23 1
  14    6    7 ar
  15    6   10 1
  16    7    8 ar
  17    7   24 1
  18    8    9 ar
  19    8   25 1
  20   10   11 1
  21   10   26 1
  22   10   27 1
  23   11   12 1
  24   11   16 1
  25   12   13 1
  26   12   28 1
  27   12   29 1
  28   13   14 1
  29   13   30 1
  30   13   31 1
  31   14   15 1
  32   14   17 1
  33   15   16 1
  34   15   32 1
  35   15   33 1
  36   16   34 1
  37   16   35 1
  38   17   36 1
  39   17   37 1
  40   17   38 1

#	End of record

