#	Name: ASD01882388
#	Creating user name:	WinNT
#	Creation time:	15. 06. 2019 19:44

#	Modifying user name:	WinNT
#	Modification time:	15. 06. 2019 19:44

#	Program:	/corina/corina34_cracker 3.40 0067  02.08.2006

@<TRIPOS>MOLECULE
ASD01882388
  46   50    0    0    0
SMALL
NO_CHARGES


@<TRIPOS>ATOM
   1 C1             2.2943     1.4764    -0.0569 C.2     
   2 C2             2.3656     0.0723    -0.0652 C.2     
   3 C3             1.2066    -0.6546    -0.0130 C.2     
   4 C4            -0.0341     0.0160     0.0480 C.2     
   5 C5            -0.0790     1.3627     0.0548 C.2     
   6 N6             1.0701     2.0968     0.0031 N.pl3   
   7 N7             2.6285     3.5827    -0.0624 N.2     
   8 N8             3.2081     2.4344    -0.0914 N.2     
   9 C9             1.3310     3.4355    -0.0041 C.2     
  10 N10            1.2514    -2.0467    -0.0204 N.pl3   
  11 C11            2.4674    -2.8643    -0.1405 C.3     
  12 C12            2.0280    -4.3436    -0.1275 C.3     
  13 C13            0.5428    -4.2689    -0.5701 C.3     
  14 C14            0.0879    -2.9444     0.0972 C.3     
  15 C15            2.8376    -5.1489    -1.1109 C.ar    
  16 C16            3.6035    -6.2116    -0.6694 C.ar    
  17 C17            4.3461    -6.9503    -1.5715 C.ar    
  18 C18            4.3225    -6.6265    -2.9152 C.ar    
  19 C19            3.5559    -5.5643    -3.3568 C.ar    
  20 C20            2.8099    -4.8284    -2.4553 C.ar    
  21 C21            0.3100     4.5427     0.0482 C.3     
  22 C22            0.0323     4.9119     1.5067 C.3     
  23 C23           -0.8939     6.1008     1.7705 C.3     
  24 C24           -1.3830     4.6759     2.0380 C.3     
  25 Cl25           3.9034    -0.7294    -0.1412 Cl      
  26 H26           -0.9512    -0.5529     0.0890 H       
  27 H27           -1.0335     1.8658     0.1013 H       
  28 H28            2.9760    -2.6368    -1.0774 H       
  29 H29            3.1312    -2.6673     0.7013 H       
  30 H30            2.1110    -4.7617     0.8757 H       
  31 H31            0.4610    -4.2117    -1.6555 H       
  32 H32           -0.0238    -5.1150    -0.1812 H       
  33 H33           -0.1587    -3.1104     1.1459 H       
  34 H34           -0.7682    -2.5274    -0.4332 H       
  35 H35            3.6219    -6.4646     0.3804 H       
  36 H36            4.9450    -7.7801    -1.2264 H       
  37 H37            4.9032    -7.2032    -3.6199 H       
  38 H38            3.5377    -5.3112    -4.4066 H       
  39 H39            2.2081    -4.0008    -2.8009 H       
  40 H40            0.6929     5.4153    -0.4810 H       
  41 H41           -0.6136     4.2078    -0.4241 H       
  42 H42            0.8616     4.7572     2.1969 H       
  43 H43           -0.6742     6.7280     2.6344 H       
  44 H44           -1.3054     6.6199     0.9049 H       
  45 H45           -2.1162     4.2577     1.3484 H       
  46 H46           -1.4850     4.3658     3.0780 H       
@<TRIPOS>BOND
   1    1    2 1
   2    1    6 1
   3    1    8 2
   4    2    3 2
   5    2   25 1
   6    3    4 1
   7    3   10 1
   8    4    5 2
   9    4   26 1
  10    5    6 1
  11    5   27 1
  12    6    9 1
  13    7    8 1
  14    7    9 2
  15    9   21 1
  16   10   11 1
  17   10   14 1
  18   11   12 1
  19   11   28 1
  20   11   29 1
  21   12   13 1
  22   12   15 1
  23   12   30 1
  24   13   14 1
  25   13   31 1
  26   13   32 1
  27   14   33 1
  28   14   34 1
  29   15   16 ar
  30   15   20 ar
  31   16   17 ar
  32   16   35 1
  33   17   18 ar
  34   17   36 1
  35   18   19 ar
  36   18   37 1
  37   19   20 ar
  38   19   38 1
  39   20   39 1
  40   21   22 1
  41   21   40 1
  42   21   41 1
  43   22   23 1
  44   22   24 1
  45   22   42 1
  46   23   24 1
  47   23   43 1
  48   23   44 1
  49   24   45 1
  50   24   46 1

#	End of record

