#	Name: ASD04590103
#	Creating user name:	WinNT
#	Creation time:	15. 06. 2019 20:50

#	Modifying user name:	WinNT
#	Modification time:	15. 06. 2019 20:50

#	Program:	/corina/corina34_cracker 3.40 0067  02.08.2006

@<TRIPOS>MOLECULE
ASD04590103
  37   39    0    0    0
SMALL
NO_CHARGES


@<TRIPOS>ATOM
   1 N1            -0.0168     1.2780    -0.0129 N.pl3   
   2 N2             0.0010    -0.0043    -0.0132 N.2     
   3 C3             1.2413    -0.4514    -0.0246 C.2     
   4 C4             2.1013     0.7388    -0.0323 C.2     
   5 C5             1.2292     1.7910    -0.0242 C.2     
   6 C6             1.6767    -1.8610    -0.0280 C.2     
   7 O7             2.8622    -2.1312    -0.0385 O.2     
   8 N8             0.7603    -2.8493    -0.0195 N.am    
   9 C9             1.1682    -4.1820    -0.1354 C.ar    
  10 C10            0.4826    -5.1812     0.5433 C.ar    
  11 C11            0.8876    -6.4963     0.4263 C.ar    
  12 C12            1.9747    -6.8188    -0.3652 C.ar    
  13 C13            2.6598    -5.8263    -1.0419 C.ar    
  14 C14            2.2562    -4.5099    -0.9341 C.ar    
  15 C15            3.5838     0.7881    -0.0453 C.ar    
  16 C16            4.2491     1.5857    -0.9748 C.ar    
  17 C17            5.6283     1.6277    -0.9824 C.ar    
  18 C18            6.3507     0.8799    -0.0698 C.ar    
  19 C19            5.6959     0.0863     0.8545 C.ar    
  20 C20            4.3165     0.0415     0.8753 C.ar    
  21 C21            6.3490     2.4892    -1.9871 C.3     
  22 O22            6.5502     3.7934    -1.4389 O.3     
  23 H23           -0.8265     1.8122    -0.0092 H       
  24 H24            1.4902     2.8390    -0.0269 H       
  25 H25           -0.1820    -2.6363     0.0670 H       
  26 H26           -0.3661    -4.9299     1.1621 H       
  27 H27            0.3549    -7.2738     0.9537 H       
  28 H28            2.2897    -7.8479    -0.4547 H       
  29 H29            3.5089    -6.0813    -1.6586 H       
  30 H30            2.7887    -3.7358    -1.4666 H       
  31 H31            3.6861     2.1696    -1.6880 H       
  32 H32            7.4301     0.9157    -0.0793 H       
  33 H33            6.2649    -0.4956     1.5644 H       
  34 H34            3.8060    -0.5748     1.6006 H       
  35 H35            7.3143     2.0416    -2.2235 H       
  36 H36            5.7515     2.5652    -2.8956 H       
  37 H37            7.0097     4.4030    -2.0324 H       
@<TRIPOS>BOND
   1    1    2 1
   2    1    5 1
   3    1   23 1
   4    2    3 2
   5    3    4 1
   6    3    6 1
   7    4    5 2
   8    4   15 1
   9    5   24 1
  10    6    7 2
  11    6    8 am
  12    8    9 1
  13    8   25 1
  14    9   10 ar
  15    9   14 ar
  16   10   11 ar
  17   10   26 1
  18   11   12 ar
  19   11   27 1
  20   12   13 ar
  21   12   28 1
  22   13   14 ar
  23   13   29 1
  24   14   30 1
  25   15   16 ar
  26   15   20 ar
  27   16   17 ar
  28   16   31 1
  29   17   18 ar
  30   17   21 1
  31   18   19 ar
  32   18   32 1
  33   19   20 ar
  34   19   33 1
  35   20   34 1
  36   21   22 1
  37   21   35 1
  38   21   36 1
  39   22   37 1

#	End of record

