#	Name: ASD01918387
#	Creating user name:	WinNT
#	Creation time:	15. 06. 2019 20:11

#	Modifying user name:	WinNT
#	Modification time:	15. 06. 2019 20:11

#	Program:	/corina/corina34_cracker 3.40 0067  02.08.2006

@<TRIPOS>MOLECULE
ASD01918387
  29   31    0    0    0
SMALL
NO_CHARGES


@<TRIPOS>ATOM
   1 Cl1            0.0021    -0.0041     0.0020 Cl      
   2 C2            -0.0215     1.7317     0.0116 C.ar    
   3 C3            -1.2299     2.4064     0.0325 C.ar    
   4 C4            -1.2553     3.7893     0.0407 C.ar    
   5 C5            -0.0748     4.5040     0.0275 C.ar    
   6 C6             1.1450     3.8305     0.0064 C.ar    
   7 C7             1.1661     2.4378     0.0040 C.ar    
   8 C8             2.4174     4.5945    -0.0079 C.2     
   9 C9             3.7151     4.0435    -0.0351 C.2     
  10 C10            4.5935     5.0628    -0.0411 C.2     
  11 C11            6.1000     4.9795    -0.0696 C.3     
  12 C12            6.6482     6.3571    -0.4643 C.3     
  13 C13            5.9711     7.4321     0.3908 C.3     
  14 C14            4.4986     7.5577    -0.0143 C.3     
  15 N15            3.8937     6.2220    -0.0177 N.pl3   
  16 N16            2.5330     5.9073    -0.0031 N.2     
  17 H17           -2.1561     1.8511     0.0421 H       
  18 H18           -2.2008     4.3109     0.0570 H       
  19 H19           -0.0962     5.5838     0.0332 H       
  20 H20            2.1088     1.9109    -0.0082 H       
  21 H21            3.9600     2.9917    -0.0483 H       
  22 H22            6.4720     4.7046     0.9174 H       
  23 H23            6.4135     4.2354    -0.8018 H       
  24 H24            7.7248     6.3825    -0.2960 H       
  25 H25            6.4389     6.5443    -1.5175 H       
  26 H26            6.0357     7.1534     1.4426 H       
  27 H27            6.4727     8.3876     0.2372 H       
  28 H28            3.9761     8.1935     0.7003 H       
  29 H29            4.4300     7.9924    -1.0115 H       
@<TRIPOS>BOND
   1    1    2 1
   2    2    7 ar
   3    2    3 ar
   4    3    4 ar
   5    3   17 1
   6    4    5 ar
   7    4   18 1
   8    5    6 ar
   9    5   19 1
  10    6    7 ar
  11    6    8 1
  12    7   20 1
  13    8   16 2
  14    8    9 1
  15    9   10 2
  16    9   21 1
  17   10   15 1
  18   10   11 1
  19   11   12 1
  20   11   22 1
  21   11   23 1
  22   12   13 1
  23   12   24 1
  24   12   25 1
  25   13   14 1
  26   13   26 1
  27   13   27 1
  28   14   15 1
  29   14   28 1
  30   14   29 1
  31   15   16 1

#	End of record

