#	Name: ASD01884617
#	Creating user name:	WinNT
#	Creation time:	15. 06. 2019 19:48

#	Modifying user name:	WinNT
#	Modification time:	15. 06. 2019 19:48

#	Program:	/corina/corina34_cracker 3.40 0067  02.08.2006

@<TRIPOS>MOLECULE
ASD01884617
  38   40    0    0    0
SMALL
NO_CHARGES


@<TRIPOS>ATOM
   1 C1            -0.0164     1.3576     0.0095 C.2     
   2 C2             0.0021    -0.0041     0.0020 C.2     
   3 C3             1.2439    -0.6751    -0.0134 C.2     
   4 C4             2.4023     0.0464    -0.0206 C.2     
   5 N5             2.3700     1.4023    -0.0130 N.am    
   6 C6             1.1986     2.0652     0.0017 C.2     
   7 O7             1.1911     3.2857     0.0087 O.2     
   8 C8             3.6266     2.1554    -0.0210 C.3     
   9 C9             1.2896    -2.1585    -0.0214 C.ar    
  10 C10            4.0439     2.4212    -1.4444 C.ar    
  11 C11            3.6197     3.5700    -2.0851 C.ar    
  12 C12            4.0008     3.8159    -3.3912 C.ar    
  13 C13            4.8083     2.9116    -4.0581 C.ar    
  14 C14            5.2344     1.7590    -3.4151 C.ar    
  15 C15            4.8554     1.5184    -2.1062 C.ar    
  16 F16            5.1808     3.1509    -5.3345 F       
  17 C17            1.8285    -2.8538     1.0570 C.ar    
  18 F18            6.0224     0.8744    -4.0644 F       
  19 N19            1.8710    -4.1714     1.0539 N.ar    
  20 C20            1.4083    -4.8808     0.0380 C.ar    
  21 C21            0.8554    -4.2575    -1.0745 C.ar    
  22 C22            0.7862    -2.8780    -1.1104 C.ar    
  23 O23            1.4746    -6.2353     0.0823 O.3     
  24 C24            2.0537    -6.8186     1.2513 C.3     
  25 H25           -0.9563     1.8895     0.0169 H       
  26 H26           -0.9217    -0.5635     0.0082 H       
  27 H27            3.3527    -0.4665    -0.0321 H       
  28 H28            3.4857     3.1027     0.4993 H       
  29 H29            4.4006     1.5760     0.4824 H       
  30 H30            2.9894     4.2763    -1.5651 H       
  31 H31            3.6681     4.7136    -3.8909 H       
  32 H32            5.1868     0.6214    -1.6043 H       
  33 H33            2.2162    -2.3084     1.9047 H       
  34 H34            0.4807    -4.8449    -1.8998 H       
  35 H35            0.3614    -2.3674    -1.9620 H       
  36 H36            1.4765    -6.5248     2.1280 H       
  37 H37            2.0452    -7.9045     1.1578 H       
  38 H38            3.0812    -6.4713     1.3597 H       
@<TRIPOS>BOND
   1    1    2 2
   2    1    6 1
   3    1   25 1
   4    2    3 1
   5    2   26 1
   6    3    4 2
   7    3    9 1
   8    4    5 1
   9    4   27 1
  10    5    6 am
  11    5    8 1
  12    6    7 2
  13    8   10 1
  14    8   28 1
  15    8   29 1
  16    9   17 ar
  17    9   22 ar
  18   10   11 ar
  19   10   15 ar
  20   11   12 ar
  21   11   30 1
  22   12   13 ar
  23   12   31 1
  24   13   14 ar
  25   13   16 1
  26   14   15 ar
  27   14   18 1
  28   15   32 1
  29   17   19 ar
  30   17   33 1
  31   19   20 ar
  32   20   21 ar
  33   20   23 1
  34   21   22 ar
  35   21   34 1
  36   22   35 1
  37   23   24 1
  38   24   36 1
  39   24   37 1
  40   24   38 1

#	End of record

