#	Name: ASD00451008
#	Creating user name:	WinNT
#	Creation time:	15. 06. 2019 18:36

#	Modifying user name:	WinNT
#	Modification time:	15. 06. 2019 18:36

#	Program:	/corina/corina34_cracker 3.40 0067  02.08.2006

@<TRIPOS>MOLECULE
ASD00451008
  53   56    0    0    0
SMALL
NO_CHARGES


@<TRIPOS>ATOM
   1 C1             0.0061     1.4646    -0.1667 C.ar    
   2 C2             0.0306     0.0806    -0.2355 C.ar    
   3 N3             1.2086     2.1883    -0.1420 N.am    
   4 C4            -1.2149     2.1378    -0.1278 C.ar    
   5 C5            -1.1535    -0.6327    -0.2598 C.ar    
   6 C6             2.2895     1.6782     0.4809 C.2     
   7 C7            -2.4003     1.4198    -0.1582 C.ar    
   8 C8            -2.3691     0.0340    -0.2155 C.ar    
   9 O9             2.1971     0.6392     1.1058 O.2     
  10 N10            3.4727     2.3197     0.4112 N.am    
  11 O11           -3.5313    -0.6706    -0.2457 O.3     
  12 C12            4.5628     1.8611     1.1603 C.ar    
  13 C13           -3.9199    -1.3085     0.8884 C.ar    
  14 C14            5.8582     2.1157     0.7306 C.ar    
  15 C15            4.3502     1.1556     2.3375 C.ar    
  16 C16           -5.1446    -1.9680     0.9552 C.ar    
  17 C17           -3.1020    -1.3264     2.0160 C.ar    
  18 C18            6.9321     1.6620     1.4716 C.ar    
  19 C19            5.4272     0.7043     3.0746 C.ar    
  20 N20           -6.1861    -2.1576     0.0492 N.am    
  21 C21           -5.5100    -2.6128     2.1372 C.ar    
  22 C22           -3.5314    -1.9857     3.1503 C.ar    
  23 C23            6.7176     0.9541     2.6408 C.ar    
  24 C24           -7.1424    -2.8865     0.6561 C.2     
  25 N25           -6.7636    -3.1694     1.9163 N.am    
  26 N26           -4.7003    -2.5971     3.1853 N.ar    
  27 Cl27           8.0694     0.3843     3.5692 Cl      
  28 O28           -8.1925    -3.2294     0.1458 O.2     
  29 H29            1.2617     3.0556    -0.5732 H       
  30 H30            3.5690     3.0992    -0.1581 H       
  31 H31           -6.2172    -1.8226    -0.8606 H       
  32 H32           -7.2770    -3.6819     2.5603 H       
  33 N33           -1.2432     3.5348    -0.0579 N.3     
  34 C34           -1.9445     4.1058    -1.2156 C.3     
  35 C35           -1.8507     3.9867     1.2010 C.3     
  36 C36            8.3385     1.9380     1.0058 C.3     
  37 F37            8.2998     2.6627    -0.1903 F       
  38 F38            9.0149     2.6807     1.9794 F       
  39 F39            9.0063     0.7267     0.7957 F       
  40 H40            0.9756    -0.4412    -0.2705 H       
  41 H41           -1.1320    -1.7111    -0.3138 H       
  42 H42           -3.3472     1.9383    -0.1282 H       
  43 H43            6.0262     2.6676    -0.1824 H       
  44 H44            3.3435     0.9605     2.6764 H       
  45 H45           -2.1427    -0.8304     2.0029 H       
  46 H46            5.2625     0.1560     3.9903 H       
  47 H47           -2.8991    -2.0010     4.0256 H       
  48 H48           -2.9697     3.7361    -1.2379 H       
  49 H49           -1.9519     5.1928    -1.1360 H       
  50 H50           -1.4323     3.8120    -2.1318 H       
  51 H51           -1.2703     3.6064     2.0415 H       
  52 H52           -1.8600     5.0763     1.2293 H       
  53 H53           -2.8724     3.6128     1.2661 H       
@<TRIPOS>BOND
   1    1    2 ar
   2    1    3 1
   3    1    4 ar
   4    2    5 ar
   5    2   40 1
   6    3   29 1
   7    3    6 am
   8    4   33 1
   9    4    7 ar
  10    5    8 ar
  11    5   41 1
  12    6    9 2
  13    6   10 am
  14    7    8 ar
  15    7   42 1
  16    8   11 1
  17   10   12 1
  18   10   30 1
  19   11   13 1
  20   12   14 ar
  21   12   15 ar
  22   13   16 ar
  23   13   17 ar
  24   14   18 ar
  25   14   43 1
  26   15   19 ar
  27   15   44 1
  28   16   20 1
  29   16   21 ar
  30   17   22 ar
  31   17   45 1
  32   18   23 ar
  33   18   36 1
  34   19   23 ar
  35   19   46 1
  36   20   31 1
  37   20   24 am
  38   21   26 ar
  39   21   25 1
  40   22   26 ar
  41   22   47 1
  42   23   27 1
  43   24   25 am
  44   24   28 2
  45   25   32 1
  46   33   34 1
  47   33   35 1
  48   34   48 1
  49   34   49 1
  50   34   50 1
  51   35   51 1
  52   35   52 1
  53   35   53 1
  54   36   37 1
  55   36   38 1
  56   36   39 1

#	End of record

