#	Name: ASD03330471
#	Creating user name:	WinNT
#	Creation time:	15. 06. 2019 20:37

#	Modifying user name:	WinNT
#	Modification time:	15. 06. 2019 20:37

#	Program:	/corina/corina34_cracker 3.40 0067  02.08.2006

@<TRIPOS>MOLECULE
ASD03330471
  58   60    0    0    0
SMALL
NO_CHARGES


@<TRIPOS>ATOM
   1 C1            -0.6222     0.9760     0.4250 C.3     
   2 N2            -0.7100    -0.4799     0.2444 N.3     
   3 C3            -0.1067    -0.8949    -1.0349 C.3     
   4 C4             1.2589    -0.2650    -1.1320 C.2     
   5 N5             1.6727     0.7619    -0.3456 N.pl3   
   6 C6             0.8346     1.3800     0.6856 C.3     
   7 C7             2.2846    -0.5722    -1.9663 C.2     
   8 N8             3.3090     0.2622    -1.6817 N.2     
   9 C9             2.9475     1.0671    -0.7066 C.2     
  10 C10            3.7852     2.1250    -0.1052 C.ar    
  11 C11            2.2817    -1.6259    -2.9968 C.2     
  12 O12            1.2932    -2.3157    -3.1584 O.2     
  13 C13            3.3717    -2.8723    -4.7845 C.3     
  14 N14            3.3745    -1.8250    -3.7601 N.am    
  15 C15           -2.1017    -0.9398     0.3438 C.3     
  16 C16            4.4906     3.0242    -0.9281 C.ar    
  17 C17            2.7524    -2.3248    -6.0719 C.3     
  18 C18            3.5273    -1.0853    -6.5237 C.3     
  19 C19            2.8185    -3.3939    -7.1645 C.3     
  20 C20            1.2920    -1.9477    -5.8152 C.3     
  21 C21            4.7869    -3.3135    -5.0559 C.2     
  22 O22            5.7158    -2.6037    -4.7328 O.2     
  23 N23            5.0203    -4.4967    -5.6575 N.am    
  24 C24            6.3952    -4.9718    -5.8306 C.3     
  25 C25            5.2777     4.0179    -0.3452 C.ar    
  26 C26            5.3606     4.1143     1.0284 C.ar    
  27 C27            4.6668     3.2292     1.8375 C.ar    
  28 C28            3.8781     2.2433     1.2804 C.ar    
  29 C29            4.4011     2.9190    -2.3534 C.1     
  30 N30            4.3301     2.8355    -3.4841 N.1     
  31 H31           -0.9812     1.4750    -0.4751 H       
  32 H32           -1.2383     1.2738     1.2734 H       
  33 H33           -0.0145    -1.9806    -1.0638 H       
  34 H34           -0.7288    -0.5552    -1.8629 H       
  35 H35            0.9299     2.4647     0.6356 H       
  36 H36            1.1432     1.0282     1.6700 H       
  37 H37            2.7871    -3.7226    -4.4331 H       
  38 H38            4.1629    -1.2748    -3.6312 H       
  39 H39           -2.7142    -0.4035    -0.3810 H       
  40 H40           -2.1467    -2.0090     0.1371 H       
  41 H41           -2.4768    -0.7480     1.3491 H       
  42 H42            4.5677    -1.3540    -6.7066 H       
  43 H43            3.0861    -0.6953    -7.4409 H       
  44 H44            3.4802    -0.3237    -5.7453 H       
  45 H45            2.2636    -4.2756    -6.8440 H       
  46 H46            2.3803    -3.0026    -8.0826 H       
  47 H47            3.8587    -3.6649    -7.3451 H       
  48 H48            1.2449    -1.1861    -5.0368 H       
  49 H49            0.8508    -1.5576    -6.7324 H       
  50 H50            0.7399    -2.8307    -5.4933 H       
  51 H51            4.2779    -5.0336    -5.9760 H       
  52 H52            6.9542    -4.2554    -6.4326 H       
  53 H53            6.8697    -5.0746    -4.8546 H       
  54 H54            6.3849    -5.9390    -6.3331 H       
  55 H55            5.8220     4.7112    -0.9692 H       
  56 H56            5.9708     4.8848     1.4762 H       
  57 H57            4.7399     3.3145     2.9116 H       
  58 H58            3.3405     1.5573     1.9182 H       
@<TRIPOS>BOND
   1    1    2 1
   2    1    6 1
   3    1   31 1
   4    1   32 1
   5    2    3 1
   6    2   15 1
   7    3    4 1
   8    3   33 1
   9    3   34 1
  10    4    5 1
  11    4    7 2
  12    5    6 1
  13    5    9 1
  14    6   35 1
  15    6   36 1
  16    7    8 1
  17    7   11 1
  18    8    9 2
  19    9   10 1
  20   10   16 ar
  21   10   28 ar
  22   11   12 2
  23   11   14 am
  24   13   14 1
  25   13   17 1
  26   13   21 1
  27   13   37 1
  28   14   38 1
  29   15   39 1
  30   15   40 1
  31   15   41 1
  32   16   25 ar
  33   16   29 1
  34   17   18 1
  35   17   19 1
  36   17   20 1
  37   18   42 1
  38   18   43 1
  39   18   44 1
  40   19   45 1
  41   19   46 1
  42   19   47 1
  43   20   48 1
  44   20   49 1
  45   20   50 1
  46   21   22 2
  47   21   23 am
  48   23   24 1
  49   23   51 1
  50   24   52 1
  51   24   53 1
  52   24   54 1
  53   25   26 ar
  54   25   55 1
  55   26   27 ar
  56   26   56 1
  57   27   28 ar
  58   27   57 1
  59   28   58 1
  60   29   30 3

#	End of record

