#	Name: ASD03320076
#	Creating user name:	WinNT
#	Creation time:	15. 06. 2019 20:36

#	Modifying user name:	WinNT
#	Modification time:	15. 06. 2019 20:36

#	Program:	/corina/corina34_cracker 3.40 0067  02.08.2006

@<TRIPOS>MOLECULE
ASD03320076
  63   67    0    0    0
SMALL
NO_CHARGES


@<TRIPOS>ATOM
   1 C1             1.1120     1.5786    -0.3552 C.2     
   2 C2             0.9376     0.1178    -0.2436 C.ar    
   3 C3             1.9986    -0.6930     0.1813 C.ar    
   4 C4             1.7842    -2.0654     0.2708 C.ar    
   5 C5             0.5200    -2.5807    -0.0663 C.ar    
   6 N6            -0.4544    -1.7766    -0.4637 N.ar    
   7 C7            -0.2886    -0.4735    -0.5544 C.ar    
   8 O8             2.1816     2.0862    -0.0777 O.2     
   9 N9             0.0875     2.3499    -0.7700 N.am    
  10 C10            0.2171     3.7443    -0.7725 C.ar    
  11 C11           -0.4720     4.5043    -1.7084 C.ar    
  12 C12           -0.3440     5.8792    -1.7101 C.ar    
  13 C13            0.4726     6.5013    -0.7770 C.ar    
  14 C14            1.1616     5.7427     0.1580 C.ar    
  15 C15            1.0302     4.3681     0.1644 C.ar    
  16 O16            0.5981     7.8552    -0.7792 O.3     
  17 C17            1.4555     8.4289     0.2096 C.3     
  18 F18            2.7528     7.9309     0.0475 F       
  19 F19            1.4687     9.8203     0.0648 F       
  20 F20            0.9845     8.0971     1.4844 F       
  21 N21            4.1478    -2.9857     0.2409 N.pl3   
  22 N22            4.8426    -3.9887     0.9290 N.2     
  23 C23            4.0234    -4.5532     1.7795 C.2     
  24 C24            2.7761    -3.9377     1.6714 C.2     
  25 C25            2.8694    -2.9677     0.7131 C.2     
  26 C26            4.6982    -2.1091    -0.7959 C.3     
  27 C27            5.6156    -1.0677    -0.1497 C.3     
  28 C28            6.2339    -0.1936    -1.2451 C.3     
  29 C29            6.9806    -1.0900    -2.2377 C.3     
  30 C30            6.0106    -2.1306    -2.8032 C.3     
  31 O31            5.4481    -2.8884    -1.7300 O.3     
  32 N32            0.2919    -3.9418     0.0177 N.3     
  33 C33           -1.1225    -4.2226     0.3250 C.3     
  34 C34           -1.6620    -5.1344    -0.7970 C.3     
  35 C35           -0.3740    -5.7807    -1.3717 C.3     
  36 C36            0.6410    -4.6168    -1.2505 C.3     
  37 O37           -2.5328    -6.1329    -0.2618 O.3     
  38 H38            2.9576    -0.2643     0.4323 H       
  39 H39           -1.1116     0.1464    -0.8781 H       
  40 H40           -0.7396     1.9391    -1.0667 H       
  41 H41           -1.1075     4.0201    -2.4351 H       
  42 H42           -0.8796     6.4704    -2.4381 H       
  43 H43            1.7975     6.2277     0.8838 H       
  44 H44            1.5630     3.7780     0.8955 H       
  45 H45            4.2714    -5.3610     2.4521 H       
  46 H46            1.8936    -4.1841     2.2432 H       
  47 H47            3.8837    -1.6040    -1.3149 H       
  48 H48            5.0359    -0.4436     0.5304 H       
  49 H49            6.4074    -1.5728     0.4034 H       
  50 H50            5.4458     0.3499    -1.7663 H       
  51 H51            6.9314     0.5140    -0.7967 H       
  52 H52            7.3772    -0.4820    -3.0507 H       
  53 H53            7.8000    -1.5957    -1.7267 H       
  54 H54            5.2133    -1.6257    -3.3486 H       
  55 H55            6.5464    -2.7983    -3.4778 H       
  56 H56           -1.1992    -4.7318     1.2857 H       
  57 H57           -1.6884    -3.2913     0.3503 H       
  58 H58           -2.1714    -4.5460    -1.5602 H       
  59 H59           -0.0631    -6.6342    -0.7691 H       
  60 H60           -0.5136    -6.0702    -2.4132 H       
  61 H61            0.5316    -3.9290    -2.0891 H       
  62 H62            1.6590    -5.0040    -1.2066 H       
  63 H63           -2.8992    -6.7324    -0.9263 H       
@<TRIPOS>BOND
   1    1    2 1
   2    1    8 2
   3    1    9 am
   4    2    3 ar
   5    2    7 ar
   6    3    4 ar
   7    3   38 1
   8    4    5 ar
   9    4   25 1
  10    5    6 ar
  11    5   32 1
  12    6    7 ar
  13    7   39 1
  14    9   10 1
  15    9   40 1
  16   10   11 ar
  17   10   15 ar
  18   11   12 ar
  19   11   41 1
  20   12   13 ar
  21   12   42 1
  22   13   14 ar
  23   13   16 1
  24   14   15 ar
  25   14   43 1
  26   15   44 1
  27   16   17 1
  28   17   18 1
  29   17   19 1
  30   17   20 1
  31   21   22 1
  32   21   25 1
  33   21   26 1
  34   22   23 2
  35   23   24 1
  36   23   45 1
  37   24   25 2
  38   24   46 1
  39   26   27 1
  40   26   31 1
  41   26   47 1
  42   27   28 1
  43   27   48 1
  44   27   49 1
  45   28   29 1
  46   28   50 1
  47   28   51 1
  48   29   30 1
  49   29   52 1
  50   29   53 1
  51   30   31 1
  52   30   54 1
  53   30   55 1
  54   32   33 1
  55   32   36 1
  56   33   34 1
  57   33   56 1
  58   33   57 1
  59   34   35 1
  60   34   37 1
  61   34   58 1
  62   35   36 1
  63   35   59 1
  64   35   60 1
  65   36   61 1
  66   36   62 1
  67   37   63 1

#	End of record

