#	Name: ASD00960232
#	Creating user name:	WinNT
#	Creation time:	15. 06. 2019 18:53

#	Modifying user name:	WinNT
#	Modification time:	15. 06. 2019 18:53

#	Program:	/corina/corina34_cracker 3.40 0067  02.08.2006

@<TRIPOS>MOLECULE
ASD00960232
  36   38    0    0    0
SMALL
NO_CHARGES


@<TRIPOS>ATOM
   1 C1            -0.0181     1.4021     0.0966 C.2     
   2 N2             2.1096     0.7465    -0.1384 N.pl3   
   3 C3             1.3375    -0.3773    -0.1990 C.2     
   4 C4            -0.0074     0.0084    -0.0536 C.2     
   5 N5             3.5001     0.6096    -0.2612 N.2     
   6 C6             4.0294    -0.5751    -0.4294 C.2     
   7 N7             3.2882    -1.6751    -0.4903 N.2     
   8 C8             1.9714    -1.6265    -0.3815 C.2     
   9 N9             1.2226    -2.7858    -0.4479 N.pl3   
  10 C10           -1.1766    -0.8792    -0.0581 C.2     
  11 C11            1.2953     1.8342     0.0412 C.2     
  12 S12           -1.7937    -1.4896     1.4175 S.2     
  13 N13           -1.7643    -1.2135    -1.2240 N.am    
  14 C14            1.7413     3.2234     0.1550 C.2     
  15 O15            0.9266     4.1127     0.3134 O.2     
  16 O16            3.0560     3.5178     0.0843 O.3     
  17 C17            3.4199     4.8945     0.2032 C.3     
  18 C18            4.9174     5.0290     0.1012 C.ar    
  19 C19            5.5120     5.2175    -1.1325 C.ar    
  20 C20            6.8856     5.3407    -1.2261 C.ar    
  21 C21            7.6647     5.2759    -0.0860 C.ar    
  22 C22            7.0700     5.0883     1.1477 C.ar    
  23 C23            5.6960     4.9694     1.2418 C.ar    
  24 H24           -0.8910     2.0246     0.2268 H       
  25 H25            5.1020    -0.6608    -0.5220 H       
  26 H26            1.6514    -3.6283    -0.6653 H       
  27 H27            0.2682    -2.7571    -0.2770 H       
  28 H28           -1.4147    -0.8677    -2.0601 H       
  29 H29           -2.5369    -1.8000    -1.2270 H       
  30 H30            2.9485     5.4653    -0.5969 H       
  31 H31            3.0856     5.2767     1.1677 H       
  32 H32            4.9033     5.2681    -2.0232 H       
  33 H33            7.3502     5.4873    -2.1900 H       
  34 H34            8.7379     5.3715    -0.1592 H       
  35 H35            7.6787     5.0373     2.0384 H       
  36 H36            5.2311     4.8265     2.2061 H       
@<TRIPOS>BOND
   1    1    4 1
   2    1   11 2
   3    1   24 1
   4    2    3 1
   5    2    5 1
   6    2   11 1
   7    3    4 2
   8    3    8 1
   9    4   10 1
  10    5    6 2
  11    6    7 1
  12    6   25 1
  13    7    8 2
  14    8    9 1
  15    9   26 1
  16    9   27 1
  17   10   12 2
  18   10   13 am
  19   11   14 1
  20   13   28 1
  21   13   29 1
  22   14   15 2
  23   14   16 1
  24   16   17 1
  25   17   18 1
  26   17   30 1
  27   17   31 1
  28   18   19 ar
  29   18   23 ar
  30   19   20 ar
  31   19   32 1
  32   20   21 ar
  33   20   33 1
  34   21   22 ar
  35   21   34 1
  36   22   23 ar
  37   22   35 1
  38   23   36 1

#	End of record

