#	Name: ASD02038997
#	Creating user name:	WinNT
#	Creation time:	15. 06. 2019 20:17

#	Modifying user name:	WinNT
#	Modification time:	15. 06. 2019 20:17

#	Program:	/corina/corina34_cracker 3.40 0067  02.08.2006

@<TRIPOS>MOLECULE
ASD02038997
  53   56    0    0    0
SMALL
NO_CHARGES


@<TRIPOS>ATOM
   1 N1             0.0026     1.2785    -0.2070 N.2     
   2 N2             0.0318    -0.0041    -0.3030 N.2     
   3 C3             1.2281     1.7343    -0.1151 C.2     
   4 O4             2.0535     0.6719    -0.1572 O.3     
   5 C5             1.2659    -0.4146    -0.2765 C.2     
   6 N6             1.6033     3.0608     0.0032 N.pl3   
   7 C7             0.6407     4.0702    -0.0872 C.ar    
   8 C8             1.7303    -1.8456    -0.3635 C.3     
   9 O9             1.9398    -2.1960    -1.7330 O.3     
  10 C10            2.3635    -3.4626    -1.9882 C.ar    
  11 C11            2.5865    -3.8688    -3.2961 C.ar    
  12 C12            2.5780    -4.3461    -0.9408 C.ar    
  13 C13            3.0084    -5.6328    -1.1989 C.ar    
  14 C14            3.2262    -6.0417    -2.5074 C.ar    
  15 C15            3.0164    -5.1546    -3.5553 C.ar    
  16 C16            0.8207     5.2669     0.5949 C.ar    
  17 C17           -0.4954     3.8811    -0.8638 C.ar    
  18 C18           -1.4446     4.8804    -0.9509 C.ar    
  19 C19           -1.2650     6.0683    -0.2660 C.ar    
  20 C20           -0.1324     6.2621     0.5035 C.ar    
  21 C21           -2.3026     7.1568    -0.3638 C.3     
  22 N22            3.6622    -7.3455    -2.7733 N.am    
  23 C23            4.2246    -7.6480    -3.9577 C.2     
  24 C24            4.4139    -6.5912    -5.0123 C.3     
  25 C25            3.2529    -5.6016    -4.9746 C.3     
  26 O26            4.5836    -8.7855    -4.1777 O.2     
  27 C27           -3.3263     6.9744     0.7270 C.2     
  28 O28           -3.2238     6.0549     1.5041 O.2     
  29 O29           -4.3520     7.8335     0.8353 O.3     
  30 C30           -6.3900     8.6693     1.8736 C.3     
  31 C31           -5.2997     7.5965     1.9095 C.3     
  32 H32            2.5345     3.2902     0.1488 H       
  33 H33            2.6640    -1.9587     0.1874 H       
  34 H34            0.9727    -2.5003     0.0672 H       
  35 H35            2.4234    -3.1793    -4.1112 H       
  36 H36            2.4086    -4.0276     0.0772 H       
  37 H37            3.1759    -6.3204    -0.3831 H       
  38 H38            1.7049     5.4186     1.1963 H       
  39 H39           -0.6361     2.9537    -1.3992 H       
  40 H40           -2.3279     4.7342    -1.5548 H       
  41 H41            0.0046     7.1908     1.0373 H       
  42 H42           -1.8216     8.1285    -0.2519 H       
  43 H43           -2.7938     7.1043    -1.3355 H       
  44 H44            3.5584    -8.0351    -2.0991 H       
  45 H45            5.3461    -6.0577    -4.8270 H       
  46 H46            4.4573    -7.0631    -5.9939 H       
  47 H47            2.3526    -6.0833    -5.3562 H       
  48 H48            3.4923    -4.7372    -5.5939 H       
  49 H49           -7.1014     8.4914     2.6801 H       
  50 H50           -5.9365     9.6525     1.9995 H       
  51 H51           -6.9087     8.6283     0.9159 H       
  52 H52           -5.7532     6.6133     1.7837 H       
  53 H53           -4.7810     7.6375     2.8673 H       
@<TRIPOS>BOND
   1    1    2 1
   2    1    3 2
   3    2    5 2
   4    3    4 1
   5    3    6 1
   6    4    5 1
   7    5    8 1
   8    6    7 1
   9    6   32 1
  10    7   16 ar
  11    7   17 ar
  12    8    9 1
  13    8   33 1
  14    8   34 1
  15    9   10 1
  16   10   11 ar
  17   10   12 ar
  18   11   15 ar
  19   11   35 1
  20   12   13 ar
  21   12   36 1
  22   13   14 ar
  23   13   37 1
  24   14   15 ar
  25   14   22 1
  26   15   25 1
  27   16   20 ar
  28   16   38 1
  29   17   18 ar
  30   17   39 1
  31   18   19 ar
  32   18   40 1
  33   19   20 ar
  34   19   21 1
  35   20   41 1
  36   21   27 1
  37   21   42 1
  38   21   43 1
  39   22   23 am
  40   22   44 1
  41   23   24 1
  42   23   26 2
  43   24   25 1
  44   24   45 1
  45   24   46 1
  46   25   47 1
  47   25   48 1
  48   27   28 2
  49   27   29 1
  50   29   31 1
  51   30   31 1
  52   30   49 1
  53   30   50 1
  54   30   51 1
  55   31   52 1
  56   31   53 1

#	End of record

