#	Name: ASD01901042
#	Creating user name:	WinNT
#	Creation time:	15. 06. 2019 19:53

#	Modifying user name:	WinNT
#	Modification time:	15. 06. 2019 19:53

#	Program:	/corina/corina34_cracker 3.40 0067  02.08.2006

@<TRIPOS>MOLECULE
ASD01901042
  40   42    0    0    0
SMALL
NO_CHARGES


@<TRIPOS>ATOM
   1 C1             0.6934     2.7831     1.2168 C.ar    
   2 C2             1.7314     3.1845     2.0551 C.ar    
   3 C3             2.8957     2.4338     2.0916 C.ar    
   4 C4             2.9816     1.3073     1.2882 C.ar    
   5 C5             1.9100     0.9670     0.4785 C.ar    
   6 N6             0.8163     1.6974     0.4632 N.ar    
   7 C7            -0.5601     3.5711     1.1708 C.2     
   8 O8            -0.6799     4.5631     1.8624 O.2     
   9 N9            -1.5677     3.1878     0.3619 N.am    
  10 C10           -2.7853     3.8748     0.3883 C.ar    
  11 C11           -2.8049     5.2492     0.5877 C.ar    
  12 C12           -4.0092     5.9247     0.6127 C.ar    
  13 C13           -5.1948     5.2342     0.4400 C.ar    
  14 C14           -5.1788     3.8657     0.2412 C.ar    
  15 C15           -3.9776     3.1850     0.2094 C.ar    
  16 S16           -6.7292     6.0997     0.4738 S.o2    
  17 O17           -7.7209     5.1446     0.8253 O.2     
  18 O18           -6.5013     7.2916     1.2132 O.2     
  19 N19           -7.0615     6.5690    -1.0791 N.am    
  20 C20           -7.2086     5.6076    -2.0839 C.ar    
  21 C21           -6.7592     5.8724    -3.3736 C.ar    
  22 C22           -6.9066     4.9191    -4.3637 C.ar    
  23 C23           -7.5005     3.7041    -4.0727 C.ar    
  24 C24           -7.9478     3.4388    -2.7919 C.ar    
  25 C25           -7.7982     4.3847    -1.7955 C.ar    
  26 F26           -6.1800     7.0593    -3.6579 F       
  27 H27            1.6301     4.0683     2.6675 H       
  28 H28            3.7175     2.7200     2.7312 H       
  29 H29            3.8754     0.7010     1.2931 H       
  30 H30            1.9738     0.0903    -0.1489 H       
  31 H31           -1.4482     2.4355    -0.2386 H       
  32 H32           -1.8794     5.7890     0.7234 H       
  33 H33           -4.0251     6.9934     0.7678 H       
  34 H34           -6.1065     3.3293     0.1070 H       
  35 H35           -3.9655     2.1169     0.0500 H       
  36 H36           -7.1542     7.5109    -1.2918 H       
  37 H37           -6.5582     5.1232    -5.3654 H       
  38 H38           -7.6153     2.9611    -4.8480 H       
  39 H39           -8.4110     2.4891    -2.5686 H       
  40 H40           -8.1442     4.1742    -0.7943 H       
@<TRIPOS>BOND
   1    1    2 ar
   2    1    6 ar
   3    1    7 1
   4    2    3 ar
   5    2   27 1
   6    3    4 ar
   7    3   28 1
   8    4    5 ar
   9    4   29 1
  10    5    6 ar
  11    5   30 1
  12    7    8 2
  13    7    9 am
  14    9   10 1
  15    9   31 1
  16   10   11 ar
  17   10   15 ar
  18   11   12 ar
  19   11   32 1
  20   12   13 ar
  21   12   33 1
  22   13   14 ar
  23   13   16 1
  24   14   15 ar
  25   14   34 1
  26   15   35 1
  27   16   17 2
  28   16   18 2
  29   16   19 am
  30   19   20 1
  31   19   36 1
  32   20   21 ar
  33   20   25 ar
  34   21   22 ar
  35   21   26 1
  36   22   23 ar
  37   22   37 1
  38   23   24 ar
  39   23   38 1
  40   24   25 ar
  41   24   39 1
  42   25   40 1

#	End of record

