#	Name: ASD05790112
#	Creating user name:	WinNT
#	Creation time:	15. 06. 2019 21:03

#	Modifying user name:	WinNT
#	Modification time:	15. 06. 2019 21:03

#	Program:	/corina/corina34_cracker 3.40 0067  02.08.2006

@<TRIPOS>MOLECULE
ASD05790112
  96  102    0    0    0
SMALL
NO_CHARGES


@<TRIPOS>ATOM
   1 C1            -1.9969     2.6102    -0.0005 C.3     
   2 C2            -2.3063     1.1117    -0.0033 C.3     
   3 C3            -1.6312     0.4572    -1.2083 C.3     
   4 C4            -0.1149     0.6536    -1.1232 C.3     
   5 C5             0.1995     2.1593    -1.1091 C.3     
   6 C6            -0.4830     2.8123     0.0912 C.3     
   7 C7             0.5382    -0.0246    -2.3284 C.3     
   8 C8             0.0907     0.6379    -3.6425 C.3     
   9 C9             0.4849     2.1007    -3.5672 C.3     
  10 C10           -0.3197     2.7386    -2.4048 C.3     
  11 C11            0.0519     2.9736    -4.7510 C.3     
  12 C12           -0.0355     4.3816    -4.1694 C.2     
  13 C13           -0.1147     4.2272    -2.6452 C.3     
  14 N14           -3.7552     0.9119    -0.0866 N.am    
  15 C15            1.1009     2.8997    -5.8420 C.3     
  16 C16            0.7668     3.6890    -7.0627 C.3     
  17 C17            1.0361     5.1723    -6.9715 C.3     
  18 C18           -0.0519     5.9074    -6.2075 C.3     
  19 C19           -0.1016     5.4901    -4.7835 C.2     
  20 C20           -0.2709     6.6584    -3.8467 C.3     
  21 C21            1.1038     5.7527    -8.4153 C.3     
  22 C22            2.2750     6.7407    -8.2880 C.3     
  23 C23            3.1958     5.9237    -7.3398 C.3     
  24 O24            2.3196     5.4092    -6.3550 O.3     
  25 N25            3.0321     6.9697    -9.5127 N.3     
  26 C26            4.1719     7.8559    -9.2077 C.3     
  27 C27            5.0977     7.2432    -8.1605 C.3     
  28 C28            4.3168     6.8408    -6.8968 C.3     
  29 C29            1.4182     4.6558    -9.4345 C.3     
  30 C30            6.1727     8.2641    -7.7823 C.3     
  31 O31            2.2748     7.4850   -10.4408 O.3     
  32 S32           -4.6411     0.6898     1.2947 S.o2    
  33 C33           -4.4880     2.2610     2.1883 C.3     
  34 O34           -5.9722     0.5071     0.8318 O.2     
  35 O35           -3.9575    -0.3461     1.9867 O.2     
  36 C36            2.1148     6.7661   -11.5687 C.2     
  37 C37            1.1732     7.2256   -12.6102 C.ar    
  38 O38            2.7447     5.7400   -11.7294 O.2     
  39 C39            1.0050     6.4828   -13.7805 C.ar    
  40 C40            0.1242     6.9177   -14.7490 C.ar    
  41 C41           -0.5918     8.0870   -14.5627 C.ar    
  42 C42           -0.4295     8.8281   -13.4055 C.ar    
  43 C43            0.4433     8.4016   -12.4262 C.ar    
  44 C44            1.7125     2.3666    -1.0142 C.3     
  45 H45           -2.3692     3.0605    -0.9207 H       
  46 H46           -2.4795     3.0799     0.8566 H       
  47 H47           -1.9288     0.6607     0.9144 H       
  48 H48           -1.8586    -0.6088    -1.2164 H       
  49 H49           -2.0047     0.9134    -2.1250 H       
  50 H50            0.2588     0.1967    -0.2068 H       
  51 H51           -0.2597     3.8792     0.0990 H       
  52 H52           -0.1119     2.3587     1.0102 H       
  53 H53            1.6218     0.0530    -2.2391 H       
  54 H54            0.2555    -1.0772    -2.3436 H       
  55 H55            0.5902     0.1622    -4.4865 H       
  56 H56           -0.9902     0.5503    -3.7528 H       
  57 H57            1.5554     2.1949    -3.3852 H       
  58 H58           -1.3770     2.4980    -2.5161 H       
  59 H59           -0.9217     2.6547    -5.1230 H       
  60 H60           -0.9585     4.7935    -2.2511 H       
  61 H61            0.8144     4.5604    -2.1827 H       
  62 H62           -4.1956     0.9097    -0.9509 H       
  63 H63            2.0457     3.2656    -5.4402 H       
  64 H64            1.2305     1.8561    -6.1285 H       
  65 H65            1.3420     3.2878    -7.8971 H       
  66 H66           -0.2911     3.5465    -7.2830 H       
  67 H67            0.1411     6.9790    -6.2573 H       
  68 H68           -1.0154     5.6992    -6.6727 H       
  69 H69           -0.3221     7.5820    -4.4233 H       
  70 H70           -1.1907     6.5354    -3.2750 H       
  71 H71            0.5779     6.7027    -3.1642 H       
  72 H72            0.1802     6.2711    -8.6727 H       
  73 H73            1.9560     7.6759    -7.8278 H       
  74 H74            3.6306     5.0942    -7.8975 H       
  75 H75            4.7380     8.0346   -10.1219 H       
  76 H76            3.7927     8.8072    -8.8342 H       
  77 H77            5.5775     6.3594    -8.5808 H       
  78 H78            3.9035     7.7281    -6.4171 H       
  79 H79            4.9751     6.3156    -6.2047 H       
  80 H80            0.6951     3.8466    -9.3321 H       
  81 H81            1.3612     5.0685   -10.4418 H       
  82 H82            2.4221     4.2707    -9.2559 H       
  83 H83            5.6985     9.1569    -7.3745 H       
  84 H84            6.8372     7.8318    -7.0342 H       
  85 H85            6.7482     8.5310    -8.6687 H       
  86 H86           -4.8870     3.0685     1.5744 H       
  87 H87           -5.0474     2.2040     3.1220 H       
  88 H88           -3.4375     2.4546     2.4053 H       
  89 H89            1.5634     5.5702   -13.9273 H       
  90 H90           -0.0067     6.3444   -15.6548 H       
  91 H91           -1.2801     8.4230   -15.3241 H       
  92 H92           -0.9912     9.7401   -13.2666 H       
  93 H93            0.5690     8.9810   -11.5235 H       
  94 H94            2.2062     1.8092    -1.8102 H       
  95 H95            1.9411     3.4273    -1.1176 H       
  96 H96            2.0679     2.0109    -0.0471 H       
@<TRIPOS>BOND
   1    1    2 1
   2    1    6 1
   3    1   45 1
   4    1   46 1
   5    2    3 1
   6    2   14 1
   7    2   47 1
   8    3    4 1
   9    3   48 1
  10    3   49 1
  11    4    5 1
  12    4    7 1
  13    4   50 1
  14    5    6 1
  15    5   44 1
  16    5   10 1
  17    6   51 1
  18    6   52 1
  19    7    8 1
  20    7   53 1
  21    7   54 1
  22    8    9 1
  23    8   55 1
  24    8   56 1
  25    9   10 1
  26    9   11 1
  27    9   57 1
  28   10   13 1
  29   10   58 1
  30   11   12 1
  31   11   15 1
  32   11   59 1
  33   12   13 1
  34   12   19 2
  35   13   60 1
  36   13   61 1
  37   14   32 am
  38   14   62 1
  39   15   16 1
  40   15   63 1
  41   15   64 1
  42   16   17 1
  43   16   65 1
  44   16   66 1
  45   17   18 1
  46   17   24 1
  47   17   21 1
  48   18   19 1
  49   18   67 1
  50   18   68 1
  51   19   20 1
  52   20   69 1
  53   20   70 1
  54   20   71 1
  55   21   22 1
  56   21   29 1
  57   21   72 1
  58   22   23 1
  59   22   25 1
  60   22   73 1
  61   23   24 1
  62   23   28 1
  63   23   74 1
  64   25   26 1
  65   25   31 1
  66   26   27 1
  67   26   75 1
  68   26   76 1
  69   27   28 1
  70   27   30 1
  71   27   77 1
  72   28   78 1
  73   28   79 1
  74   29   80 1
  75   29   81 1
  76   29   82 1
  77   30   83 1
  78   30   84 1
  79   30   85 1
  80   31   36 1
  81   32   33 1
  82   32   34 2
  83   32   35 2
  84   33   86 1
  85   33   87 1
  86   33   88 1
  87   36   37 1
  88   36   38 2
  89   37   39 ar
  90   37   43 ar
  91   39   40 ar
  92   39   89 1
  93   40   41 ar
  94   40   90 1
  95   41   42 ar
  96   41   91 1
  97   42   43 ar
  98   42   92 1
  99   43   93 1
 100   44   94 1
 101   44   95 1
 102   44   96 1

#	End of record

