#	Name: ASD05060120
#	Creating user name:	WinNT
#	Creation time:	15. 06. 2019 20:56

#	Modifying user name:	WinNT
#	Modification time:	15. 06. 2019 20:56

#	Program:	/corina/corina34_cracker 3.40 0067  02.08.2006

@<TRIPOS>MOLECULE
ASD05060120
  51   53    0    0    0
SMALL
NO_CHARGES


@<TRIPOS>ATOM
   1 C1            -0.0187     1.5258     0.0104 C.3     
   2 C2             0.0021    -0.0041     0.0020 C.3     
   3 C3             1.4167     2.0553    -0.0004 C.3     
   4 O4            -0.7098     1.9991    -1.1473 O.3     
   5 C5            -0.7348     2.0192     1.2692 C.3     
   6 C6            -2.0667     1.5595    -1.2344 C.3     
   7 C7            -2.8845     2.5950    -1.9625 C.2     
   8 C8            -2.1247     0.2544    -1.9857 C.2     
   9 O9            -3.3054    -0.3502    -2.1905 O.3     
  10 O10           -1.1083    -0.2477    -2.4036 O.2     
  11 C11           -4.1158     3.0559    -1.5895 C.2     
  12 N12           -4.5006     3.9815    -2.5170 N.pl3   
  13 N13           -3.4783     4.0800    -3.4695 N.2     
  14 C14           -2.5163     3.2577    -3.1338 C.2     
  15 C15           -1.2294     3.0544    -3.8912 C.3     
  16 C16           -5.7016     4.7026    -2.5159 C.ar    
  17 C17           -5.7261     6.0140    -2.9718 C.ar    
  18 C18           -6.9119     6.7222    -2.9699 C.ar    
  19 C19           -8.0739     6.1265    -2.5148 C.ar    
  20 C20           -8.0528     4.8207    -2.0602 C.ar    
  21 C21           -6.8712     4.1055    -2.0644 C.ar    
  22 C22           -4.8884     2.6307    -0.4019 C.ar    
  23 C23           -5.5108     3.5828     0.4063 C.ar    
  24 C24           -6.2304     3.1804     1.5123 C.ar    
  25 C25           -6.3358     1.8347     1.8210 C.ar    
  26 C26           -5.7203     0.8855     1.0226 C.ar    
  27 C27           -5.0025     1.2758    -0.0889 C.ar    
  28 Cl28          -7.2426     1.3358     3.2147 Cl      
  29 H29            0.5293    -0.3651     0.8851 H       
  30 H30           -1.0205    -0.3814     0.0098 H       
  31 H31            0.5123    -0.3556    -0.8948 H       
  32 H32            1.9269     1.7038    -0.8972 H       
  33 H33            1.4019     3.1452     0.0056 H       
  34 H34            1.9439     1.6943     0.8826 H       
  35 H35           -0.2076     1.6581     2.1523 H       
  36 H36           -0.7496     3.1091     1.2752 H       
  37 H37           -1.7574     1.6419     1.2770 H       
  38 H38           -2.4683     1.4192    -0.2308 H       
  39 H39           -3.2923    -1.1855    -2.6776 H       
  40 H40           -0.4762     3.7499    -3.5211 H       
  41 H41           -0.8811     2.0315    -3.7479 H       
  42 H42           -1.4001     3.2347    -4.9526 H       
  43 H43           -4.8188     6.4799    -3.3270 H       
  44 H44           -6.9315     7.7423    -3.3240 H       
  45 H45           -8.9998     6.6825    -2.5140 H       
  46 H46           -8.9619     4.3584    -1.7050 H       
  47 H47           -6.8553     3.0857    -1.7093 H       
  48 H48           -5.4290     4.6327     0.1666 H       
  49 H49           -6.7123     3.9165     2.1388 H       
  50 H50           -5.8058    -0.1627     1.2682 H       
  51 H51           -4.5228     0.5345    -0.7109 H       
@<TRIPOS>BOND
   1    1    2 1
   2    1    3 1
   3    1    4 1
   4    1    5 1
   5    2   29 1
   6    2   30 1
   7    2   31 1
   8    3   32 1
   9    3   33 1
  10    3   34 1
  11    4    6 1
  12    5   35 1
  13    5   36 1
  14    5   37 1
  15    6    7 1
  16    6    8 1
  17    6   38 1
  18    7   11 2
  19    7   14 1
  20    8    9 1
  21    8   10 2
  22    9   39 1
  23   11   12 1
  24   11   22 1
  25   12   13 1
  26   12   16 1
  27   13   14 2
  28   14   15 1
  29   15   40 1
  30   15   41 1
  31   15   42 1
  32   16   17 ar
  33   16   21 ar
  34   17   18 ar
  35   17   43 1
  36   18   19 ar
  37   18   44 1
  38   19   20 ar
  39   19   45 1
  40   20   21 ar
  41   20   46 1
  42   21   47 1
  43   22   23 ar
  44   22   27 ar
  45   23   24 ar
  46   23   48 1
  47   24   25 ar
  48   24   49 1
  49   25   26 ar
  50   25   28 1
  51   26   27 ar
  52   26   50 1
  53   27   51 1

#	End of record

