#	Name: ASD01810265
#	Creating user name:	WinNT
#	Creation time:	15. 06. 2019 19:24

#	Modifying user name:	WinNT
#	Modification time:	15. 06. 2019 19:24

#	Program:	/corina/corina34_cracker 3.40 0067  02.08.2006

@<TRIPOS>MOLECULE
ASD01810265
  44   47    0    0    0
SMALL
NO_CHARGES


@<TRIPOS>ATOM
   1 C1             0.1045     1.4769     0.3893 C.ar    
   2 C2             0.0854     0.0906     0.3810 C.ar    
   3 C3             1.2537    -0.6303     0.2398 C.ar    
   4 C4             2.4707     0.0350     0.1031 C.ar    
   5 C5             2.4886     1.4402     0.1112 C.ar    
   6 C6             1.2982     2.1573     0.2554 C.ar    
   7 N7             3.6448    -0.6745    -0.0381 N.pl3   
   8 C8             4.8383    -0.0824    -0.1717 C.2     
   9 C9             4.9815     1.2904    -0.1784 C.2     
  10 C10            3.7819     2.1314    -0.0342 C.2     
  11 O11            3.8554     3.3478    -0.0339 O.2     
  12 C12            3.5837    -2.1382    -0.0416 C.3     
  13 C13            3.4399    -2.6316    -1.4583 C.ar    
  14 C14            4.5614    -2.7752    -2.2551 C.ar    
  15 C15            4.4355    -3.2266    -3.5532 C.ar    
  16 C16            3.1757    -3.5380    -4.0608 C.ar    
  17 C17            2.0494    -3.3914    -3.2537 C.ar    
  18 C18            2.1875    -2.9445    -1.9552 C.ar    
  19 C19            3.0341    -4.0233    -5.4559 C.ar    
  20 C20            6.3094     1.9023    -0.3270 C.2     
  21 O21            6.4364     3.2443    -0.3320 O.3     
  22 O22            7.2933     1.1982    -0.4454 O.2     
  23 C23            1.7747    -4.3345    -5.9630 C.ar    
  24 C24            1.6489    -4.7863    -7.2636 C.ar    
  25 C25            2.7729    -4.9297    -8.0604 C.ar    
  26 C26            4.0249    -4.6220    -7.5597 C.ar    
  27 C27            4.1602    -4.1639    -6.2649 C.ar    
  28 F28            1.3151     3.5082     0.2628 F       
  29 F29            1.2177    -1.9808     0.2346 F       
  30 F30            0.4284    -5.0888    -7.7578 F       
  31 H31           -0.8188     2.0268     0.4965 H       
  32 H32           -0.8544    -0.4310     0.4865 H       
  33 H33            5.7182    -0.6996    -0.2775 H       
  34 H34            4.4988    -2.5411     0.3923 H       
  35 H35            2.7270    -2.4675     0.5465 H       
  36 H36            5.5373    -2.5333    -1.8608 H       
  37 H37            5.3118    -3.3381    -4.1746 H       
  38 H38            1.0706    -3.6310    -3.6422 H       
  39 H39            1.3152    -2.8309    -1.3286 H       
  40 H40            7.3298     3.6004    -0.4323 H       
  41 H41            0.8985    -4.2233    -5.3415 H       
  42 H42            2.6713    -5.2832    -9.0758 H       
  43 H43            4.8981    -4.7359    -8.1849 H       
  44 H44            5.1387    -3.9242    -5.8757 H       
@<TRIPOS>BOND
   1    1    2 ar
   2    1    6 ar
   3    1   31 1
   4    2    3 ar
   5    2   32 1
   6    3    4 ar
   7    3   29 1
   8    4    5 ar
   9    4    7 1
  10    5    6 ar
  11    5   10 1
  12    6   28 1
  13    7    8 1
  14    7   12 1
  15    8    9 2
  16    8   33 1
  17    9   10 1
  18    9   20 1
  19   10   11 2
  20   12   13 1
  21   12   34 1
  22   12   35 1
  23   13   14 ar
  24   13   18 ar
  25   14   15 ar
  26   14   36 1
  27   15   16 ar
  28   15   37 1
  29   16   17 ar
  30   16   19 1
  31   17   18 ar
  32   17   38 1
  33   18   39 1
  34   19   23 ar
  35   19   27 ar
  36   20   21 1
  37   20   22 2
  38   21   40 1
  39   23   24 ar
  40   23   41 1
  41   24   25 ar
  42   24   30 1
  43   25   26 ar
  44   25   42 1
  45   26   27 ar
  46   26   43 1
  47   27   44 1

#	End of record

