#	Name: ASD00460033
#	Creating user name:	WinNT
#	Creation time:	15. 06. 2019 18:36

#	Modifying user name:	WinNT
#	Modification time:	15. 06. 2019 18:36

#	Program:	/corina/corina34_cracker 3.40 0067  02.08.2006

@<TRIPOS>MOLECULE
ASD00460033
  80   84    0    0    0
SMALL
NO_CHARGES


@<TRIPOS>ATOM
   1 O1            -0.2279    -1.3229     0.7975 O.2     
   2 C2            -0.0515    -0.1289     0.9437 C.2     
   3 N3             1.0647     0.4516     0.4603 N.am    
   4 C4             2.0654    -0.3562    -0.2414 C.3     
   5 C5             1.7407    -0.3848    -1.7363 C.3     
   6 C6             2.7857    -1.2284    -2.4692 C.3     
   7 C7             2.6854    -2.6609    -2.0119 C.ar    
   8 C8             1.4647    -3.3093    -2.0331 C.ar    
   9 C9             1.3727    -4.6233    -1.6137 C.ar    
  10 C10            2.5014    -5.2890    -1.1735 C.ar    
  11 C11            3.7222    -4.6408    -1.1531 C.ar    
  12 C12            3.8150    -3.3282    -1.5766 C.ar    
  13 C13            2.5380    -1.1565    -3.9539 C.ar    
  14 C14            3.5676    -0.8147    -4.8107 C.ar    
  15 C15            3.3403    -0.7487    -6.1726 C.ar    
  16 C16            2.0837    -1.0250    -6.6779 C.ar    
  17 C17            1.0543    -1.3678    -5.8212 C.ar    
  18 C18            1.2826    -1.4380    -4.4596 C.ar    
  19 C19            1.2773     1.8903     0.6365 C.3     
  20 C20            2.0244     2.1385     1.9484 C.3     
  21 N21            2.2376     3.5812     2.1251 N.3     
  22 C22            2.7367     3.8785     3.4756 C.3     
  23 C23            3.0012     5.3816     3.5966 C.3     
  24 O24            1.8010     6.0977     3.2932 O.3     
  25 C25            1.2873     5.8323     1.9852 C.3     
  26 C26            1.0055     4.3337     1.8478 C.3     
  27 N27           -0.9746     0.6153     1.5844 N.am    
  28 C28           -2.1284     0.0176     2.0779 C.2     
  29 N29           -3.0794     0.6334     2.7076 N.2     
  30 C30           -4.1132    -0.1049     3.1085 C.2     
  31 C31           -4.0365    -1.4134     2.8041 C.2     
  32 S32           -2.5277    -1.6916     1.9378 S.3     
  33 Cl33          -5.2235    -2.6191     3.1924 Cl      
  34 C34           -5.2667     0.4742     3.8390 C.ar    
  35 C35           -5.0689     1.5192     4.7405 C.ar    
  36 C36           -6.1429     2.0559     5.4186 C.ar    
  37 C37           -7.4218     1.5558     5.2042 C.ar    
  38 C38           -7.6214     0.5140     4.3063 C.ar    
  39 C39           -6.5514    -0.0216     3.6210 C.ar    
  40 N40           -8.5085     2.1011     5.8928 N.am    
  41 S41           -9.1015     3.5858     5.4613 S.o2    
  42 O42          -10.1880     3.8014     6.3515 O.2     
  43 O43           -7.9628     4.4358     5.4758 O.2     
  44 C44           -9.7037     3.3573     3.7655 C.3     
  45 H45            3.0534     0.0794    -0.0925 H       
  46 H46            2.0532    -1.3725     0.1525 H       
  47 H47            0.7526    -0.8204    -1.8853 H       
  48 H48            1.7529     0.6314    -2.1303 H       
  49 H49            3.7819    -0.8454    -2.2480 H       
  50 H50            0.5829    -2.7893    -2.3771 H       
  51 H51            0.4189    -5.1297    -1.6296 H       
  52 H52            2.4294    -6.3153    -0.8451 H       
  53 H53            4.6040    -5.1608    -0.8088 H       
  54 H54            4.7688    -2.8218    -1.5608 H       
  55 H55            4.5494    -0.5988    -4.4159 H       
  56 H56            4.1446    -0.4808    -6.8419 H       
  57 H57            1.9060    -0.9727    -7.7419 H       
  58 H58            0.0724    -1.5833    -6.2159 H       
  59 H59            0.4784    -1.7058    -3.7904 H       
  60 H60            1.8668     2.2751    -0.1957 H       
  61 H61            0.3138     2.3992     0.6651 H       
  62 H62            1.4349     1.7538     2.7806 H       
  63 H63            2.9879     1.6297     1.9198 H       
  64 H64            1.9918     3.5795     4.2130 H       
  65 H65            3.6629     3.3308     3.6501 H       
  66 H66            3.3170     5.6149     4.6134 H       
  67 H67            3.7846     5.6709     2.8961 H       
  68 H68            0.3635     6.3915     1.8365 H       
  69 H69            2.0208     6.1347     1.2378 H       
  70 H70            0.6678     4.1183     0.8340 H       
  71 H71            0.2329     4.0420     2.5592 H       
  72 H72           -0.8339     1.5679     1.7011 H       
  73 H73           -4.0752     1.9077     4.9080 H       
  74 H74           -5.9902     2.8654     6.1171 H       
  75 H75           -8.6161     0.1267     4.1416 H       
  76 H76           -6.7070    -0.8313     2.9234 H       
  77 H77           -8.9155     1.6099     6.6236 H       
  78 H78          -10.4967     2.6095     3.7592 H       
  79 H79          -10.0929     4.3028     3.3877 H       
  80 H80           -8.8834     3.0224     3.1307 H       
@<TRIPOS>BOND
   1    1    2 2
   2    2    3 am
   3    2   27 am
   4    3    4 1
   5    3   19 1
   6    4    5 1
   7    4   45 1
   8    4   46 1
   9    5    6 1
  10    5   47 1
  11    5   48 1
  12    6    7 1
  13    6   13 1
  14    6   49 1
  15    7    8 ar
  16    7   12 ar
  17    8    9 ar
  18    8   50 1
  19    9   10 ar
  20    9   51 1
  21   10   11 ar
  22   10   52 1
  23   11   12 ar
  24   11   53 1
  25   12   54 1
  26   13   14 ar
  27   13   18 ar
  28   14   15 ar
  29   14   55 1
  30   15   16 ar
  31   15   56 1
  32   16   17 ar
  33   16   57 1
  34   17   18 ar
  35   17   58 1
  36   18   59 1
  37   19   20 1
  38   19   60 1
  39   19   61 1
  40   20   21 1
  41   20   62 1
  42   20   63 1
  43   21   22 1
  44   21   26 1
  45   22   23 1
  46   22   64 1
  47   22   65 1
  48   23   24 1
  49   23   66 1
  50   23   67 1
  51   24   25 1
  52   25   26 1
  53   25   68 1
  54   25   69 1
  55   26   70 1
  56   26   71 1
  57   27   28 1
  58   27   72 1
  59   28   29 2
  60   28   32 1
  61   29   30 1
  62   30   31 2
  63   30   34 1
  64   31   32 1
  65   31   33 1
  66   34   35 ar
  67   34   39 ar
  68   35   36 ar
  69   35   73 1
  70   36   37 ar
  71   36   74 1
  72   37   38 ar
  73   37   40 1
  74   38   39 ar
  75   38   75 1
  76   39   76 1
  77   40   41 am
  78   40   77 1
  79   41   42 2
  80   41   43 2
  81   41   44 1
  82   44   78 1
  83   44   79 1
  84   44   80 1

#	End of record

