#	Name: ASD01881711
#	Creating user name:	WinNT
#	Creation time:	15. 06. 2019 19:43

#	Modifying user name:	WinNT
#	Modification time:	15. 06. 2019 19:43

#	Program:	/corina/corina34_cracker 3.40 0067  02.08.2006

@<TRIPOS>MOLECULE
ASD01881711
  44   47    0    0    0
SMALL
NO_CHARGES


@<TRIPOS>ATOM
   1 C1            -0.0187     1.5258     0.0104 C.3     
   2 C2             0.0021    -0.0041     0.0020 C.3     
   3 C3            -1.4333    -0.5336     0.0129 C.3     
   4 O4             0.6709    -0.4649    -1.1737 O.3     
   5 O5            -1.4146    -1.9583     0.1225 O.3     
   6 N6            -6.1261    -4.7498     0.2394 N.pl3   
   7 N7            -5.5484    -6.0234     0.3483 N.2     
   8 N8            -4.2670    -5.9122     0.3658 N.2     
   9 C9            -3.9078    -4.6162     0.2741 C.ar    
  10 C10           -5.0844    -3.8515     0.1919 C.ar    
  11 C11           -2.6661    -3.9663     0.2505 C.ar    
  12 C12           -2.6178    -2.5916     0.1461 C.ar    
  13 C13           -3.7924    -1.8474     0.0652 C.ar    
  14 C14           -5.0100    -2.4671     0.0885 C.ar    
  15 C15           -7.5563    -4.4378     0.1811 C.3     
  16 C16           -8.0892    -4.2215     1.5989 C.3     
  17 C17           -9.5433    -3.7686     1.7456 C.3     
  18 C18           -9.1472    -5.2001     2.1128 C.3     
  19 Br19          -1.0662    -4.9684     0.3600 Br      
  20 N20            1.3595     2.0342     0.0000 N.3     
  21 C21            1.3838     3.4905    -0.2315 C.3     
  22 C22            2.4825     3.5859     0.8364 C.3     
  23 C23            1.8350     2.3006     1.3704 C.3     
  24 H24           -0.5459     1.8868    -0.8726 H       
  25 H25           -0.5289     1.8773     0.9072 H       
  26 H26            0.5293    -0.3651     0.8851 H       
  27 H27           -1.9701    -0.1109     0.8621 H       
  28 H28           -1.9334    -0.2470    -0.9122 H       
  29 H29            0.2557    -0.1806    -1.9994 H       
  30 H30           -3.7403    -0.7717    -0.0158 H       
  31 H31           -5.9150    -1.8812     0.0254 H       
  32 H32           -7.7069    -3.5317    -0.4058 H       
  33 H33           -8.0901    -5.2658    -0.2853 H       
  34 H34           -7.3671    -3.8366     2.3190 H       
  35 H35           -9.7778    -3.0860     2.5624 H       
  36 H36          -10.1202    -3.6247     0.8320 H       
  37 H37           -9.4635    -5.9979     1.4409 H       
  38 H38           -9.1211    -5.4593     3.1712 H       
  39 H39            1.7236     3.7659    -1.2299 H       
  40 H40            0.4579     3.9908     0.0523 H       
  41 H41            3.4928     3.4496     0.4506 H       
  42 H42            2.3854     4.4441     1.5013 H       
  43 H43            1.0295     2.4833     2.0817 H       
  44 H44            2.5571     1.5674     1.7296 H       
@<TRIPOS>BOND
   1    1    2 1
   2    1   20 1
   3    1   24 1
   4    1   25 1
   5    2    3 1
   6    2    4 1
   7    2   26 1
   8    3    5 1
   9    3   27 1
  10    3   28 1
  11    4   29 1
  12    5   12 1
  13    6    7 1
  14    6   10 1
  15    6   15 1
  16    7    8 2
  17    8    9 1
  18    9   10 ar
  19    9   11 ar
  20   10   14 ar
  21   11   12 ar
  22   11   19 1
  23   12   13 ar
  24   13   14 ar
  25   13   30 1
  26   14   31 1
  27   15   16 1
  28   15   32 1
  29   15   33 1
  30   16   17 1
  31   16   18 1
  32   16   34 1
  33   17   18 1
  34   17   35 1
  35   17   36 1
  36   18   37 1
  37   18   38 1
  38   20   21 1
  39   20   23 1
  40   21   22 1
  41   21   39 1
  42   21   40 1
  43   22   23 1
  44   22   41 1
  45   22   42 1
  46   23   43 1
  47   23   44 1

#	End of record

