#	Name: ASD03912043
#	Creating user name:	WinNT
#	Creation time:	15. 06. 2019 20:47

#	Modifying user name:	WinNT
#	Modification time:	15. 06. 2019 20:47

#	Program:	/corina/corina34_cracker 3.40 0067  02.08.2006

@<TRIPOS>MOLECULE
ASD03912043
  89   92    0    0    0
SMALL
NO_CHARGES


@<TRIPOS>ATOM
   1 C1             0.5423    16.2855    -5.1699 C.ar    
   2 C2             0.9852    16.4680    -6.4671 C.ar    
   3 C3             1.5867    15.4258    -7.1486 C.ar    
   4 C4             1.7465    14.1987    -6.5352 C.ar    
   5 C5             1.3028    14.0123    -5.2325 C.ar    
   6 C6             0.7047    15.0627    -4.5488 C.ar    
   7 C7            -0.1126    17.4240    -4.4310 C.3     
   8 C8             2.0678    15.6291    -8.5621 C.3     
   9 N9             1.4632    12.7703    -4.6082 N.am    
  10 C10            0.5406    12.3345    -3.7277 C.2     
  11 C11            0.6572    10.9537    -3.1356 C.3     
  12 O12           -0.3836    13.0537    -3.4119 O.2     
  13 C13           -0.4905    10.7146    -2.1886 C.ar    
  14 C14           -1.6685    10.1630    -2.6574 C.ar    
  15 C15           -2.7221     9.9428    -1.7914 C.ar    
  16 C16           -2.5973    10.2756    -0.4503 C.ar    
  17 C17           -1.4143    10.8290     0.0175 C.ar    
  18 C18           -0.3616    11.0419    -0.8515 C.ar    
  19 O19           -3.6325    10.0604     0.4035 O.3     
  20 C20           -3.4131    10.3725     1.7807 C.3     
  21 C21           -2.2516     9.5727     2.3121 C.2     
  22 C22           -3.1349    11.8772     1.9424 C.3     
  23 C23           -4.2467    12.4353     2.8546 C.3     
  24 C24           -4.7366    11.2025     3.6542 C.3     
  25 C25           -4.6838    10.0675     2.6005 C.3     
  26 N26           -2.0627     8.3034     1.9001 N.am    
  27 O27           -1.4868    10.0713     3.1105 O.2     
  28 C28           -0.8779     7.5604     2.3363 C.3     
  29 C29           -1.1455     6.9318     3.6796 C.2     
  30 O30           -2.2160     7.0884     4.2174 O.2     
  31 O31           -0.1945     6.1979     4.2785 O.3     
  32 C32           -0.5578     6.4663     1.3159 C.3     
  33 C33           -0.1646     7.1097    -0.0154 C.3     
  34 C34            0.1555     6.0156    -1.0358 C.3     
  35 C35            0.5486     6.6590    -2.3671 C.3     
  36 C36            2.1777     4.2088    -7.6829 C.ar    
  37 C37            1.1568     3.6419    -8.4228 C.ar    
  38 C38            1.4075     2.5353    -9.2123 C.ar    
  39 C39            2.6793     1.9958    -9.2623 C.ar    
  40 C40            3.7004     2.5632    -8.5232 C.ar    
  41 C41            3.4506     3.6724    -7.7371 C.ar    
  42 N42            0.8551     5.6114    -3.3442 N.am    
  43 C43            1.2279     5.9452    -4.5956 C.2     
  44 O44            1.3097     7.1152    -4.9135 O.2     
  45 O45            1.5095     4.9824    -5.4936 O.3     
  46 C46            1.9043     5.4152    -6.8222 C.3     
  47 H47            0.8608    17.4264    -6.9492 H       
  48 H48            2.2157    13.3850    -7.0682 H       
  49 H49            0.3589    14.9209    -3.5355 H       
  50 H50           -1.1879    17.4012    -4.6079 H       
  51 H51            0.0822    17.3240    -3.3632 H       
  52 H52            0.2943    18.3703    -4.7875 H       
  53 H53            3.1013    15.9754    -8.5479 H       
  54 H54            2.0081    14.6860    -9.1054 H       
  55 H55            1.4421    16.3728    -9.0555 H       
  56 H56            2.2384    12.2230    -4.8092 H       
  57 H57            0.6298    10.2123    -3.9342 H       
  58 H58            1.5991    10.8691    -2.5935 H       
  59 H59           -1.7653     9.9044    -3.7015 H       
  60 H60           -3.6422     9.5123    -2.1580 H       
  61 H61           -1.3147    11.0889     1.0610 H       
  62 H62            0.5596    11.4726    -0.4878 H       
  63 H63           -2.1602    12.0290     2.4060 H       
  64 H64           -3.1673    12.3694     0.9704 H       
  65 H65           -3.8436    13.1914     3.5284 H       
  66 H66           -5.0586    12.8495     2.2569 H       
  67 H67           -4.0642    10.9889     4.4851 H       
  68 H68           -5.7560    11.3528     4.0097 H       
  69 H69           -5.5662    10.0990     1.9614 H       
  70 H70           -4.6000     9.0968     3.0892 H       
  71 H71           -2.7113     7.8819     1.3148 H       
  72 H72           -0.0308     8.2417     2.4163 H       
  73 H73           -0.4125     5.8149     5.1393 H       
  74 H74            0.2684     5.8574     1.6831 H       
  75 H75           -1.4360     5.8373     1.1701 H       
  76 H76           -0.9908     7.7186    -0.3826 H       
  77 H77            0.7135     7.7387     0.1304 H       
  78 H78            0.9816     5.4067    -0.6686 H       
  79 H79           -0.7227     5.3866    -1.1816 H       
  80 H80           -0.2775     7.2679    -2.7344 H       
  81 H81            1.4268     7.2880    -2.2213 H       
  82 H82            0.1632     4.0635    -8.3837 H       
  83 H83            0.6098     2.0920    -9.7898 H       
  84 H84            2.8750     1.1308    -9.8786 H       
  85 H85            4.6939     2.1414    -8.5621 H       
  86 H86            4.2484     4.1157    -7.1596 H       
  87 H87            0.7897     4.6774    -3.0905 H       
  88 H88            2.8058     6.0240    -6.7530 H       
  89 H89            1.1015     6.0039    -7.2661 H       
@<TRIPOS>BOND
   1    1    2 ar
   2    1    7 1
   3    1    6 ar
   4    2    3 ar
   5    2   47 1
   6    3    4 ar
   7    3    8 1
   8    4    5 ar
   9    4   48 1
  10    5    6 ar
  11    5    9 1
  12    6   49 1
  13    7   50 1
  14    7   51 1
  15    7   52 1
  16    8   53 1
  17    8   54 1
  18    8   55 1
  19    9   10 am
  20    9   56 1
  21   10   11 1
  22   10   12 2
  23   11   13 1
  24   11   57 1
  25   11   58 1
  26   13   14 ar
  27   13   18 ar
  28   14   15 ar
  29   14   59 1
  30   15   16 ar
  31   15   60 1
  32   16   17 ar
  33   16   19 1
  34   17   18 ar
  35   17   61 1
  36   18   62 1
  37   19   20 1
  38   20   21 1
  39   20   22 1
  40   20   25 1
  41   21   26 am
  42   21   27 2
  43   22   23 1
  44   22   63 1
  45   22   64 1
  46   23   24 1
  47   23   65 1
  48   23   66 1
  49   24   25 1
  50   24   67 1
  51   24   68 1
  52   25   69 1
  53   25   70 1
  54   26   28 1
  55   26   71 1
  56   28   29 1
  57   28   32 1
  58   28   72 1
  59   29   30 2
  60   29   31 1
  61   31   73 1
  62   32   33 1
  63   32   74 1
  64   32   75 1
  65   33   34 1
  66   33   76 1
  67   33   77 1
  68   34   35 1
  69   34   78 1
  70   34   79 1
  71   35   42 1
  72   35   80 1
  73   35   81 1
  74   36   37 ar
  75   36   46 1
  76   36   41 ar
  77   37   38 ar
  78   37   82 1
  79   38   39 ar
  80   38   83 1
  81   39   40 ar
  82   39   84 1
  83   40   41 ar
  84   40   85 1
  85   41   86 1
  86   42   43 am
  87   42   87 1
  88   43   44 2
  89   43   45 1
  90   45   46 1
  91   46   88 1
  92   46   89 1

#	End of record

