#	Name: ASD01814949
#	Creating user name:	WinNT
#	Creation time:	15. 06. 2019 19:33

#	Modifying user name:	WinNT
#	Modification time:	15. 06. 2019 19:33

#	Program:	/corina/corina34_cracker 3.40 0067  02.08.2006

@<TRIPOS>MOLECULE
ASD01814949
  56   59    0    0    0
SMALL
NO_CHARGES


@<TRIPOS>ATOM
   1 C1            -0.0169     1.3972     0.0097 C.2     
   2 C2             0.0021    -0.0041     0.0020 C.2     
   3 C3             1.1986    -0.6593    -0.0129 C.2     
   4 C4             2.3918     0.0821    -0.0204 C.2     
   5 N5             2.3437     1.4497    -0.0122 N.am    
   6 C6             1.1421     2.0937     0.0024 C.2     
   7 C7             3.6227    -0.5889    -0.0356 C.2     
   8 C8             4.7877     0.1218    -0.0425 C.2     
   9 C9             4.7345     1.5280    -0.0346 C.2     
  10 C10            3.4812     2.1736    -0.0189 C.2     
  11 O11            3.4258     3.3917    -0.0123 O.2     
  12 C12            5.9703     2.3140    -0.0413 C.2     
  13 O13            5.9124     3.6618    -0.0337 O.3     
  14 O14            7.0487     1.7516    -0.0537 O.2     
  15 C15            3.6593    -2.0954    -0.0439 C.3     
  16 N16            3.7787    -2.5747    -1.4274 N.3     
  17 C17            4.0549    -4.0171    -1.4629 C.3     
  18 C18            4.0193    -4.5119    -2.8812 C.2     
  19 N19            3.4533    -3.8192    -3.8750 N.am    
  20 C20            2.8493    -2.5039    -3.6821 C.3     
  21 C21            2.5615    -2.2718    -2.1975 C.3     
  22 O22            4.5255    -5.5843    -3.1352 O.2     
  23 C23            5.4175    -4.2801    -0.8753 C.ar    
  24 C24            5.6174    -5.3765    -0.0578 C.ar    
  25 C25            6.8693    -5.6182     0.4814 C.ar    
  26 C26            7.9200    -4.7608     0.2010 C.ar    
  27 C27            7.7178    -3.6654    -0.6166 C.ar    
  28 C28            6.4683    -3.4280    -1.1588 C.ar    
  29 F29            7.0657    -6.6893     1.2810 F       
  30 C30            2.1508    -5.8476    -6.7999 C.3     
  31 C31            2.1658    -5.2349    -5.3980 C.3     
  32 C32            3.4389    -4.4058    -5.2173 C.3     
  33 H33           -0.9605     1.9226     0.0170 H       
  34 H34           -0.9233    -0.5609     0.0082 H       
  35 H35            1.2282    -1.7389    -0.0187 H       
  36 H36            1.1156     3.1733     0.0087 H       
  37 H37            5.7393    -0.3889    -0.0536 H       
  38 H38            6.7544     4.1373    -0.0385 H       
  39 H39            4.5153    -2.4412     0.5356 H       
  40 H40            2.7412    -2.4836     0.3971 H       
  41 H41            3.3020    -4.5441    -0.8768 H       
  42 H42            3.5333    -1.7355    -4.0423 H       
  43 H43            1.9171    -2.4481    -4.2442 H       
  44 H44            1.7523    -2.9270    -1.8749 H       
  45 H45            2.2778    -1.2315    -2.0385 H       
  46 H46            4.7971    -6.0443     0.1605 H       
  47 H47            8.8971    -4.9482     0.6213 H       
  48 H48            8.5371    -2.9966    -0.8355 H       
  49 H49            6.3112    -2.5717    -1.7980 H       
  50 H50            1.2438    -6.4383    -6.9286 H       
  51 H51            2.1749    -5.0519    -7.5444 H       
  52 H52            3.0231    -6.4891    -6.9254 H       
  53 H53            1.2936    -4.5934    -5.2725 H       
  54 H54            2.1418    -6.0307    -4.6534 H       
  55 H55            3.4630    -3.6101    -5.9619 H       
  56 H56            4.3112    -5.0473    -5.3428 H       
@<TRIPOS>BOND
   1    1    2 1
   2    1    6 2
   3    1   33 1
   4    2    3 2
   5    2   34 1
   6    3    4 1
   7    3   35 1
   8    4    5 1
   9    4    7 2
  10    5    6 1
  11    5   10 am
  12    6   36 1
  13    7   15 1
  14    7    8 1
  15    8    9 2
  16    8   37 1
  17    9   10 1
  18    9   12 1
  19   10   11 2
  20   12   13 1
  21   12   14 2
  22   13   38 1
  23   15   16 1
  24   15   39 1
  25   15   40 1
  26   16   17 1
  27   16   21 1
  28   17   18 1
  29   17   23 1
  30   17   41 1
  31   18   19 am
  32   18   22 2
  33   19   20 1
  34   19   32 1
  35   20   21 1
  36   20   42 1
  37   20   43 1
  38   21   44 1
  39   21   45 1
  40   23   24 ar
  41   23   28 ar
  42   24   25 ar
  43   24   46 1
  44   25   26 ar
  45   25   29 1
  46   26   27 ar
  47   26   47 1
  48   27   28 ar
  49   27   48 1
  50   28   49 1
  51   30   31 1
  52   30   50 1
  53   30   51 1
  54   30   52 1
  55   31   32 1
  56   31   53 1
  57   31   54 1
  58   32   55 1
  59   32   56 1

#	End of record

