#	Name: ASD03330277
#	Creating user name:	WinNT
#	Creation time:	15. 06. 2019 20:36

#	Modifying user name:	WinNT
#	Modification time:	15. 06. 2019 20:36

#	Program:	/corina/corina34_cracker 3.40 0067  02.08.2006

@<TRIPOS>MOLECULE
ASD03330277
  67   70    0    0    0
SMALL
NO_CHARGES


@<TRIPOS>ATOM
   1 C1            -0.1811    -0.4831     1.6567 C.3     
   2 N2            -0.6038    -1.7838     1.1186 N.3     
   3 C3            -0.0673    -1.9985    -0.2375 C.3     
   4 C4             1.4112    -1.7090    -0.2047 C.2     
   5 N5             2.0262    -1.0394     0.8053 N.pl3   
   6 C6             1.3187    -0.5163     1.9775 C.3     
   7 C7             2.3658    -2.0338    -1.1119 C.2     
   8 N8             3.5477    -1.5654    -0.6496 N.2     
   9 C9             3.3492    -0.9672     0.5037 C.2     
  10 C10            4.3910    -0.3234     1.3339 C.ar    
  11 C11            5.6431    -0.0373     0.7892 C.ar    
  12 C12            2.1538    -2.7651    -2.3736 C.2     
  13 O13            1.0372    -3.1366    -2.6809 O.2     
  14 C14            2.9863    -3.7494    -4.4413 C.3     
  15 N15            3.1972    -3.0223    -3.1870 N.am    
  16 C16            6.6102     0.5636     1.5685 C.ar    
  17 C17            6.3403     0.8824     2.8874 C.ar    
  18 C18            5.1006     0.6014     3.4335 C.ar    
  19 C19            4.1233     0.0055     2.6631 C.ar    
  20 C20            2.5642    -2.7668    -5.5355 C.3     
  21 C21            3.6731    -1.7346    -5.7495 C.3     
  22 C22            2.3190    -3.5296    -6.8390 C.3     
  23 C23            1.2784    -2.0537    -5.1123 C.3     
  24 C24           -2.0675    -1.9083     1.1315 C.3     
  25 C25            4.2665    -4.4332    -4.8468 C.2     
  26 O26            5.3242    -4.0660    -4.3807 O.2     
  27 C27           -2.6671    -0.8816     0.2056 C.2     
  28 C28           -3.0891     0.3563     0.5530 C.2     
  29 N29            4.2360    -5.4530    -5.7276 N.am    
  30 C30            5.4872    -6.0550    -6.1948 C.3     
  31 C31           -3.5753     0.9842    -0.5984 C.2     
  32 N32           -3.4497     0.1531    -1.6011 N.2     
  33 N33           -2.8741    -1.0298    -1.1196 N.pl3   
  34 C34           -2.5604    -2.2208    -1.9130 C.3     
  35 H35           -0.3767     0.2951     0.9191 H       
  36 H36           -0.7415    -0.2679     2.5665 H       
  37 H37           -0.2337    -3.0323    -0.5401 H       
  38 H38           -0.5592    -1.3248    -0.9392 H       
  39 H39            1.6697     0.4915     2.1994 H       
  40 H40            1.4972    -1.1655     2.8347 H       
  41 H41            5.8551    -0.2860    -0.2401 H       
  42 H42            2.2042    -4.4956    -4.3017 H       
  43 H43            4.0877    -2.7261    -2.9420 H       
  44 H44            7.5800     0.7852     1.1482 H       
  45 H45            7.1008     1.3524     3.4935 H       
  46 H46            4.8961     0.8527     4.4637 H       
  47 H47            3.1559    -0.2135     3.0904 H       
  48 H48            4.5891    -2.2427    -6.0511 H       
  49 H49            3.3724    -1.0346    -6.5291 H       
  50 H50            3.8478    -1.1912    -4.8210 H       
  51 H51            1.5149    -4.2506    -6.6922 H       
  52 H52            2.0384    -2.8271    -7.6238 H       
  53 H53            3.2291    -4.0544    -7.1296 H       
  54 H54            1.4531    -1.5103    -4.1837 H       
  55 H55            0.9777    -1.3537    -5.8919 H       
  56 H56            0.4884    -2.7890    -4.9599 H       
  57 H57           -2.3501    -2.9069     0.7986 H       
  58 H58           -2.4371    -1.7446     2.1438 H       
  59 H59           -3.0566     0.7838     1.5443 H       
  60 H60            3.3856    -5.7883    -6.0521 H       
  61 H61            6.0923    -5.2963    -6.6912 H       
  62 H62            6.0364    -6.4582    -5.3440 H       
  63 H63            5.2640    -6.8583    -6.8969 H       
  64 H64           -3.9843     1.9824    -0.6507 H       
  65 H65           -1.5857    -2.0966    -2.3848 H       
  66 H66           -2.5406    -3.0955    -1.2630 H       
  67 H67           -3.3214    -2.3563    -2.6815 H       
@<TRIPOS>BOND
   1    1    2 1
   2    1    6 1
   3    1   35 1
   4    1   36 1
   5    2    3 1
   6    2   24 1
   7    3    4 1
   8    3   37 1
   9    3   38 1
  10    4    5 1
  11    4    7 2
  12    5    6 1
  13    5    9 1
  14    6   39 1
  15    6   40 1
  16    7    8 1
  17    7   12 1
  18    8    9 2
  19    9   10 1
  20   10   11 ar
  21   10   19 ar
  22   11   16 ar
  23   11   41 1
  24   12   13 2
  25   12   15 am
  26   14   15 1
  27   14   25 1
  28   14   20 1
  29   14   42 1
  30   15   43 1
  31   16   17 ar
  32   16   44 1
  33   17   18 ar
  34   17   45 1
  35   18   19 ar
  36   18   46 1
  37   19   47 1
  38   20   21 1
  39   20   22 1
  40   20   23 1
  41   21   48 1
  42   21   49 1
  43   21   50 1
  44   22   51 1
  45   22   52 1
  46   22   53 1
  47   23   54 1
  48   23   55 1
  49   23   56 1
  50   24   27 1
  51   24   57 1
  52   24   58 1
  53   25   26 2
  54   25   29 am
  55   27   28 2
  56   27   33 1
  57   28   31 1
  58   28   59 1
  59   29   30 1
  60   29   60 1
  61   30   61 1
  62   30   62 1
  63   30   63 1
  64   31   32 2
  65   31   64 1
  66   32   33 1
  67   33   34 1
  68   34   65 1
  69   34   66 1
  70   34   67 1

#	End of record

