#	Name: ASD01903121
#	Creating user name:	WinNT
#	Creation time:	15. 06. 2019 19:54

#	Modifying user name:	WinNT
#	Modification time:	15. 06. 2019 19:54

#	Program:	/corina/corina34_cracker 3.40 0067  02.08.2006

@<TRIPOS>MOLECULE
ASD01903121
  51   54    0    0    0
SMALL
NO_CHARGES


@<TRIPOS>ATOM
   1 N1            -0.0426     1.3989    -0.0024 N.am    
   2 C2            -0.0172    -0.0043    -0.0070 C.ar    
   3 C3             0.2324    -0.6977     1.1690 C.ar    
   4 C4             0.2576    -2.0782     1.1650 C.ar    
   5 C5             0.0331    -2.7737    -0.0160 C.ar    
   6 C6            -0.2168    -2.0803    -1.1935 C.ar    
   7 C7            -0.2476    -0.6995    -1.1881 C.ar    
   8 Cl8           -0.5604     0.1677    -2.6591 Cl      
   9 N9             0.0591    -4.1727    -0.0199 N.am    
  10 C10            0.5514    -4.8346    -1.0857 C.2     
  11 C11            0.6747    -6.3103    -1.0489 C.ar    
  12 N12            0.2987    -6.9752     0.0365 N.ar    
  13 C13            0.3917    -8.2852     0.1100 C.ar    
  14 C14            0.8894    -9.0239    -0.9513 C.ar    
  15 C15            1.2937    -8.3693    -2.1046 C.ar    
  16 C16            1.1791    -6.9892    -2.1561 C.ar    
  17 O17            0.8941    -4.2207    -2.0771 O.2     
  18 C18            1.0991     2.0643    -0.2323 C.2     
  19 C19            1.1358     3.5697    -0.2540 C.3     
  20 C20            0.0412     4.1128     0.6690 C.3     
  21 C21           -1.3045     3.5239     0.2367 C.3     
  22 C22           -1.2089     2.0209     0.2264 C.2     
  23 O23           -2.2036     1.3605     0.4365 O.2     
  24 O24            2.1213     1.4419    -0.4259 O.2     
  25 C25            0.3394     3.7053     2.1121 C.3     
  26 C26            1.6873     4.2903     2.5392 C.3     
  27 C27            1.6360     5.8161     2.4372 C.3     
  28 C28            1.3401     6.2217     0.9919 C.3     
  29 C29           -0.0079     5.6372     0.5642 C.3     
  30 H30            0.4074    -0.1573     2.0876 H       
  31 H31            0.4522    -2.6173     2.0803 H       
  32 H32           -0.3911    -2.6209    -2.1121 H       
  33 H33           -0.2772    -4.6662     0.7445 H       
  34 H34            0.0762    -8.7919     1.0100 H       
  35 H35            0.9619   -10.0991    -0.8807 H       
  36 H36            1.6853    -8.9228    -2.9453 H       
  37 H37            1.4841    -6.4469    -3.0389 H       
  38 H38            2.1095     3.9154     0.0930 H       
  39 H39            0.9637     3.9236    -1.2705 H       
  40 H40           -2.0803     3.8365     0.9357 H       
  41 H41           -1.5516     3.8766    -0.7646 H       
  42 H42           -0.4453     4.0852     2.7665 H       
  43 H43            0.3764     2.6182     2.1825 H       
  44 H44            1.8988     4.0019     3.5689 H       
  45 H45            2.4723     3.9087     1.8863 H       
  46 H46            0.8505     6.1975     3.0896 H       
  47 H47            2.5958     6.2330     2.7422 H       
  48 H48            1.3042     7.3087     0.9197 H       
  49 H49            2.1252     5.8398     0.3394 H       
  50 H50           -0.2177     5.9239    -0.4663 H       
  51 H51           -0.7934     6.0210     1.2152 H       
@<TRIPOS>BOND
   1    1    2 1
   2    1   18 am
   3    1   22 am
   4    2    3 ar
   5    2    7 ar
   6    3    4 ar
   7    3   30 1
   8    4    5 ar
   9    4   31 1
  10    5    6 ar
  11    5    9 1
  12    6    7 ar
  13    6   32 1
  14    7    8 1
  15    9   10 am
  16    9   33 1
  17   10   11 1
  18   10   17 2
  19   11   12 ar
  20   11   16 ar
  21   12   13 ar
  22   13   14 ar
  23   13   34 1
  24   14   15 ar
  25   14   35 1
  26   15   16 ar
  27   15   36 1
  28   16   37 1
  29   18   19 1
  30   18   24 2
  31   19   20 1
  32   19   38 1
  33   19   39 1
  34   20   21 1
  35   20   25 1
  36   20   29 1
  37   21   22 1
  38   21   40 1
  39   21   41 1
  40   22   23 2
  41   25   26 1
  42   25   42 1
  43   25   43 1
  44   26   27 1
  45   26   44 1
  46   26   45 1
  47   27   28 1
  48   27   46 1
  49   27   47 1
  50   28   29 1
  51   28   48 1
  52   28   49 1
  53   29   50 1
  54   29   51 1

#	End of record

