#	Name: ASD03331340
#	Creating user name:	WinNT
#	Creation time:	15. 06. 2019 20:39

#	Modifying user name:	WinNT
#	Modification time:	15. 06. 2019 20:39

#	Program:	/corina/corina34_cracker 3.40 0067  02.08.2006

@<TRIPOS>MOLECULE
ASD03331340
  53   55    0    0    0
SMALL
NO_CHARGES


@<TRIPOS>ATOM
   1 C1             0.2029     0.7797    -0.1147 C.2     
   2 C2            -1.0523     1.6005     0.0326 C.3     
   3 C3            -1.0037     2.3745     1.3515 C.3     
   4 C4             0.2145     3.3003     1.3550 C.3     
   5 O5             0.1306    -0.4224    -0.2124 O.2     
   6 O6             1.4009     1.3845    -0.1429 O.3     
   7 C7            -2.7653     0.3241    -1.1393 C.2     
   8 O8            -2.2908     0.7077    -2.1899 O.2     
   9 N9            -2.2186     0.7141     0.0293 N.am    
  10 C10           -6.4583    -2.4373    -2.7592 C.3     
  11 C11           -5.5062    -1.7407    -1.8200 C.2     
  12 C12           -4.4830    -0.9574    -2.2384 C.2     
  13 C13           -4.1810    -0.7005    -3.6942 C.3     
  14 C14           -4.9308    -1.7529    -4.5230 C.3     
  15 N15           -6.3334    -1.8155    -4.0886 N.3     
  16 N16           -4.4864    -1.0093    -0.0100 N.2     
  17 N17           -3.8384    -0.4914    -1.1423 N.am    
  18 C18           -5.4896    -1.7611    -0.4163 C.2     
  19 C19           -6.4356    -2.4990     0.4563 C.ar    
  20 C20           -7.0203    -1.8614     1.5515 C.ar    
  21 C21           -7.9014    -2.5527     2.3614 C.ar    
  22 C22           -8.2038    -3.8760     2.0879 C.ar    
  23 C23           -7.6248    -4.5138     1.0002 C.ar    
  24 C24           -6.7473    -3.8289     0.1817 C.ar    
  25 F25           -7.9235    -5.8050     0.7380 F       
  26 F26           -9.0649    -4.5482     2.8827 F       
  27 F27           -6.7252    -0.5706     1.8198 F       
  28 C28           -7.1601    -2.5188    -5.0785 C.3     
  29 C29           -2.2780     3.2079     1.5010 C.3     
  30 C30           -0.8988     1.3893     2.5174 C.3     
  31 H31           -1.1270     2.3024    -0.7980 H       
  32 H32            0.1398     4.0021     0.5243 H       
  33 H33            0.2491     3.8517     2.2946 H       
  34 H34            1.1224     2.7066     1.2484 H       
  35 H35            2.1772     0.8166    -0.2430 H       
  36 H36           -2.5975     0.4079     0.8681 H       
  37 H37           -6.2034    -3.4952    -2.8229 H       
  38 H38           -7.4800    -2.3261    -2.3960 H       
  39 H39           -4.5205     0.2976    -3.9709 H       
  40 H40           -3.1087    -0.7881    -3.8696 H       
  41 H41           -4.8894    -1.4810    -5.5777 H       
  42 H42           -4.4629    -2.7271    -4.3814 H       
  43 H43           -8.3544    -2.0601     3.2091 H       
  44 H44           -6.3003    -4.3249    -0.6671 H       
  45 H45           -8.2054    -2.4808    -4.7717 H       
  46 H46           -7.0493    -2.0392    -6.0510 H       
  47 H47           -6.8392    -3.5582    -5.1472 H       
  48 H48           -3.1458     2.5484     1.4986 H       
  49 H49           -2.2434     3.7593     2.4406 H       
  50 H50           -2.3527     3.9098     0.6704 H       
  51 H51            0.0091     0.7956     2.4109 H       
  52 H52           -0.8642     1.9407     3.4570 H       
  53 H53           -1.7666     0.7298     2.5149 H       
@<TRIPOS>BOND
   1    1    5 2
   2    1    6 1
   3    1    2 1
   4    2    3 1
   5    2    9 1
   6    2   31 1
   7    3    4 1
   8    3   29 1
   9    3   30 1
  10    4   32 1
  11    4   33 1
  12    4   34 1
  13    6   35 1
  14    7    8 2
  15    7    9 am
  16    7   17 am
  17    9   36 1
  18   10   11 1
  19   10   15 1
  20   10   37 1
  21   10   38 1
  22   11   12 2
  23   11   18 1
  24   12   13 1
  25   12   17 1
  26   13   14 1
  27   13   39 1
  28   13   40 1
  29   14   15 1
  30   14   41 1
  31   14   42 1
  32   15   28 1
  33   16   17 1
  34   16   18 2
  35   18   19 1
  36   19   20 ar
  37   19   24 ar
  38   20   21 ar
  39   20   27 1
  40   21   22 ar
  41   21   43 1
  42   22   23 ar
  43   22   26 1
  44   23   24 ar
  45   23   25 1
  46   24   44 1
  47   28   45 1
  48   28   46 1
  49   28   47 1
  50   29   48 1
  51   29   49 1
  52   29   50 1
  53   30   51 1
  54   30   52 1
  55   30   53 1

#	End of record

