#	Name: ASD08710099
#	Creating user name:	WinNT
#	Creation time:	15. 06. 2019 21:19

#	Modifying user name:	WinNT
#	Modification time:	15. 06. 2019 21:19

#	Program:	/corina/corina34_cracker 3.40 0067  02.08.2006

@<TRIPOS>MOLECULE
ASD08710099
  54   55    0    0    0
SMALL
NO_CHARGES


@<TRIPOS>ATOM
   1 N1            -0.0374     2.0298     0.0737 N.am    
   2 C2             0.0006     0.5820    -0.1757 C.3     
   3 C3             0.8445     0.3228    -1.4299 C.3     
   4 N4             2.1134     1.0529    -1.3014 N.am    
   5 C5             2.0753     2.5008    -1.0520 C.3     
   6 C6             1.2315     2.7600     0.2023 C.3     
   7 S7            -1.4842     2.8253     0.2008 S.o2    
   8 O8            -1.2014     4.2050     0.0118 O.2     
   9 O9            -2.4101     2.1048    -0.6010 O.2     
  10 C10           -2.0297     2.6530     1.8673 C.ar    
  11 C11           -1.6647     3.5913     2.8146 C.ar    
  12 C12           -2.0925     3.4560     4.1221 C.ar    
  13 C13           -2.8857     2.3827     4.4822 C.ar    
  14 C14           -3.2515     1.4449     3.5348 C.ar    
  15 C15           -2.8272     1.5825     2.2264 C.ar    
  16 C16           -3.3513     2.2347     5.9078 C.3     
  17 F17           -4.5752     2.8930     6.0694 F       
  18 F18           -3.5086     0.8775     6.2085 F       
  19 F19           -2.4025     2.7962     6.7690 F       
  20 C20            3.2909     0.4063    -1.4098 C.2     
  21 O21            3.3119    -0.8042    -1.5175 O.2     
  22 C22            5.5818     0.8300    -0.5132 C.ar    
  23 C23            4.5571     1.1694    -1.3979 C.ar    
  24 C24            4.7487     2.2442    -2.2741 C.ar    
  25 C25            5.9523     2.9255    -2.2230 C.ar    
  26 C26            6.9181     2.5266    -1.3169 C.ar    
  27 N27            6.7096     1.5093    -0.5028 N.ar    
  28 C28            5.3933    -0.3197     0.4426 C.3     
  29 C29           -1.4210     0.0614    -0.3967 C.3     
  30 H30            0.4498     0.0753     0.6785 H       
  31 H31            1.0444    -0.7448    -1.5221 H       
  32 H32            0.3077     0.6744    -2.3110 H       
  33 H33            3.0881     2.8716    -0.8945 H       
  34 H34            1.6262     3.0074    -1.9062 H       
  35 H35            1.0315     3.8275     0.2945 H       
  36 H36            1.7682     2.4084     1.0834 H       
  37 H37           -1.0450     4.4298     2.5332 H       
  38 H38           -1.8068     4.1887     4.8623 H       
  39 H39           -3.8709     0.6061     3.8162 H       
  40 H40           -3.1159     0.8518     1.4854 H       
  41 H41            3.9772     2.5341    -2.9721 H       
  42 H42            6.1356     3.7596    -2.8841 H       
  43 H43            7.8582     3.0565    -1.2750 H       
  44 H44            5.8119    -1.2269     0.0067 H       
  45 H45            5.9020    -0.0993     1.3810 H       
  46 H46            4.3296    -0.4647     0.6313 H       
  47 H47           -1.8102     0.4550    -1.3356 H       
  48 H48           -1.4069    -1.0278    -0.4373 H       
  49 H49           -2.0587     0.3861     0.4255 H       
  50 C50           13.8007    10.6380    11.7763 C.2     
  51 O51           13.8171     9.4298    11.7697 O.2     
  52 O52           14.9539    11.3249    11.7690 O.3     
  53 H53           12.8582    11.1652    11.7836 H       
  54 H54           14.8902    12.2897    11.7748 H       
@<TRIPOS>BOND
   1    1    2 1
   2    1    6 1
   3    1    7 am
   4    2    3 1
   5    2   29 1
   6    2   30 1
   7    3    4 1
   8    3   31 1
   9    3   32 1
  10    4    5 1
  11    4   20 am
  12    5    6 1
  13    5   33 1
  14    5   34 1
  15    6   35 1
  16    6   36 1
  17    7    8 2
  18    7    9 2
  19    7   10 1
  20   10   11 ar
  21   10   15 ar
  22   11   12 ar
  23   11   37 1
  24   12   13 ar
  25   12   38 1
  26   13   14 ar
  27   13   16 1
  28   14   15 ar
  29   14   39 1
  30   15   40 1
  31   16   17 1
  32   16   18 1
  33   16   19 1
  34   20   21 2
  35   20   23 1
  36   22   23 ar
  37   22   27 ar
  38   22   28 1
  39   23   24 ar
  40   24   25 ar
  41   24   41 1
  42   25   26 ar
  43   25   42 1
  44   26   27 ar
  45   26   43 1
  46   28   44 1
  47   28   45 1
  48   28   46 1
  49   29   47 1
  50   29   48 1
  51   29   49 1
  52   50   51 2
  53   50   52 1
  54   50   53 1
  55   52   54 1

#	End of record

