#	Name: ASD09116167
#	Creating user name:	WinNT
#	Creation time:	15. 06. 2019 21:20

#	Modifying user name:	WinNT
#	Modification time:	15. 06. 2019 21:20

#	Program:	/corina/corina34_cracker 3.40 0067  02.08.2006

@<TRIPOS>MOLECULE
ASD09116167
  70   76    0    0    0
SMALL
NO_CHARGES


@<TRIPOS>ATOM
   1 N1            -0.0266     1.4808     0.1051 N.2     
   2 C2            -0.0140     0.0097     0.1909 C.3     
   3 C3             1.2225     1.8593     0.0812 C.2     
   4 N4             2.0842     0.8235     0.1403 N.2     
   5 C5             1.4646    -0.3259     0.2082 C.2     
   6 N6             1.6191     3.1791     0.0037 N.pl3   
   7 C7             2.9774     3.5091     0.0982 C.ar    
   8 C8             3.4715     4.6166    -0.5783 C.ar    
   9 C9             3.8283     2.7320     0.8730 C.ar    
  10 C10            5.1669     3.0574     0.9666 C.ar    
  11 C11            5.6623     4.1617     0.2855 C.ar    
  12 C12            4.8101     4.9419    -0.4851 C.ar    
  13 N13            2.0278    -1.5619     0.2800 N.pl3   
  14 C14           -0.6793    -0.4545     1.4608 C.ar    
  15 C15           -1.5523    -1.5163     1.4248 C.ar    
  16 N16           -0.4149     0.1589     2.6020 N.ar    
  17 C17           -0.9698    -0.2076     3.7393 C.ar    
  18 C18           -1.8713    -1.2738     3.7817 C.ar    
  19 C19           -2.1629    -1.9387     2.5993 C.ar    
  20 N20            7.0188     4.4918     0.3807 N.3     
  21 C21            7.3266     5.6889    -0.4143 C.3     
  22 C22            8.7982     6.0621    -0.2207 C.3     
  23 N23            9.6450     4.9318    -0.6266 N.3     
  24 C24            9.3373     3.7348     0.1684 C.3     
  25 C25            7.8657     3.3615    -0.0252 C.3     
  26 C26           11.0691     5.2784    -0.5267 C.3     
  27 C27           -3.0704    -3.1153     2.2498 C.3     
  28 C28           -2.0832    -4.2757     1.9048 C.3     
  29 C29           -1.3991    -3.8098     0.5971 C.3     
  30 C30           -2.0541    -2.4211     0.3001 C.3     
  31 C31           -3.5195    -2.6921     0.8020 C.3     
  32 C32           -2.4977    -1.6890     5.0613 C.ar    
  33 C33           -1.7073    -1.9097     6.1874 C.ar    
  34 C34           -2.2952    -2.2952     7.3751 C.ar    
  35 C35           -3.6662    -2.4630     7.4487 C.ar    
  36 C36           -4.4555    -2.2456     6.3338 C.ar    
  37 C37           -3.8788    -1.8539     5.1426 C.ar    
  38 H38           -0.5005    -0.4304    -0.6796 H       
  39 H39            0.9574     3.8781    -0.1163 H       
  40 H40            2.8088     5.2232    -1.1776 H       
  41 H41            3.4431     1.8733     1.4026 H       
  42 H42            5.8286     2.4534     1.5698 H       
  43 H43            5.1954     5.8004    -1.0151 H       
  44 H44            2.9932    -1.6556     0.2842 H       
  45 H45            1.4639    -2.3498     0.3271 H       
  46 H46           -0.7250     0.3216     4.6483 H       
  47 H47            7.1391     5.4835    -1.4682 H       
  48 H48            6.6957     6.5151    -0.0866 H       
  49 H49            9.0360     6.9326    -0.8321 H       
  50 H50            8.9795     6.2939     0.8288 H       
  51 H51            9.9682     2.9085    -0.1593 H       
  52 H52            9.5248     3.9401     1.2223 H       
  53 H53            7.6279     2.4910     0.5862 H       
  54 H54            7.6843     3.1297    -1.0747 H       
  55 H55           11.3075     5.5414     0.5039 H       
  56 H56           11.6732     4.4244    -0.8328 H       
  57 H57           11.2831     6.1266    -1.1769 H       
  58 H58           -3.8560    -3.3485     2.9685 H       
  59 H59           -1.3464    -4.3991     2.6984 H       
  60 H60           -2.6286    -5.2050     1.7405 H       
  61 H61           -0.3247    -3.7020     0.7456 H       
  62 H62           -1.6054    -4.5100    -0.2124 H       
  63 H63           -1.9354    -2.0396    -0.7140 H       
  64 H64           -3.9986    -3.5086     0.2616 H       
  65 H65           -4.1305    -1.7895     0.8047 H       
  66 H66           -0.6367    -1.7797     6.1309 H       
  67 H67           -1.6836    -2.4666     8.2486 H       
  68 H68           -4.1221    -2.7651     8.3800 H       
  69 H69           -5.5255    -2.3788     6.3965 H       
  70 H70           -4.4961    -1.6841     4.2727 H       
@<TRIPOS>BOND
   1    1    2 1
   2    1    3 2
   3    2   14 1
   4    2    5 1
   5    2   38 1
   6    3    4 1
   7    3    6 1
   8    4    5 2
   9    5   13 1
  10    6    7 1
  11    6   39 1
  12    7    8 ar
  13    7    9 ar
  14    8   12 ar
  15    8   40 1
  16    9   10 ar
  17    9   41 1
  18   10   11 ar
  19   10   42 1
  20   11   12 ar
  21   11   20 1
  22   12   43 1
  23   13   44 1
  24   13   45 1
  25   14   15 ar
  26   14   16 ar
  27   15   19 ar
  28   15   30 1
  29   16   17 ar
  30   17   18 ar
  31   17   46 1
  32   18   19 ar
  33   18   32 1
  34   19   27 1
  35   20   21 1
  36   20   25 1
  37   21   22 1
  38   21   47 1
  39   21   48 1
  40   22   23 1
  41   22   49 1
  42   22   50 1
  43   23   24 1
  44   23   26 1
  45   24   25 1
  46   24   51 1
  47   24   52 1
  48   25   53 1
  49   25   54 1
  50   26   55 1
  51   26   56 1
  52   26   57 1
  53   27   28 1
  54   27   31 1
  55   27   58 1
  56   28   29 1
  57   28   59 1
  58   28   60 1
  59   29   30 1
  60   29   61 1
  61   29   62 1
  62   30   31 1
  63   30   63 1
  64   31   64 1
  65   31   65 1
  66   32   33 ar
  67   32   37 ar
  68   33   34 ar
  69   33   66 1
  70   34   35 ar
  71   34   67 1
  72   35   36 ar
  73   35   68 1
  74   36   37 ar
  75   36   69 1
  76   37   70 1

#	End of record

