#	Name: ASD01028643
#	Creating user name:	WinNT
#	Creation time:	15. 06. 2019 18:57

#	Modifying user name:	WinNT
#	Modification time:	15. 06. 2019 18:57

#	Program:	/corina/corina34_cracker 3.40 0067  02.08.2006

@<TRIPOS>MOLECULE
ASD01028643
  46   50    0    0    0
SMALL
NO_CHARGES


@<TRIPOS>ATOM
   1 N1             0.1315     1.2050    -0.0098 N.2     
   2 N2             0.0458    -0.1896     0.0433 N.pl3   
   3 C3             1.3023     1.8028    -0.0142 C.2     
   4 C4             2.4947     1.0516     0.0340 C.2     
   5 C5             2.4430    -0.3056     0.0863 C.2     
   6 C6             1.1891    -0.9476     0.0915 C.2     
   7 N7             0.8336    -2.2237     0.1358 N.2     
   8 C8            -0.4973    -2.3068     0.1180 C.2     
   9 C9            -1.0077    -1.0541     0.0596 C.2     
  10 C10           -3.0795    -1.1832    -1.2621 C.ar    
  11 C11           -3.5099    -0.2674    -2.2196 C.ar    
  12 C12            1.3698     3.2838    -0.0711 C.ar    
  13 C13           -2.4682    -0.6846     0.0219 C.3     
  14 C14           -4.0667    -0.6840    -3.3897 C.ar    
  15 C15            0.1977     4.0360    -0.1195 C.ar    
  16 C16            0.2664     5.4134    -0.1723 C.ar    
  17 C17            1.4958     6.0474    -0.1772 C.ar    
  18 C18            2.6625     5.3058    -0.1297 C.ar    
  19 C19            2.6055     3.9281    -0.0705 C.ar    
  20 C20           -4.2122    -2.0589    -3.6422 C.ar    
  21 C21           -3.7733    -2.9887    -2.6670 C.ar    
  22 C22           -3.2090    -2.5230    -1.4688 C.ar    
  23 N23           -4.7559    -2.4974    -4.7821 N.ar    
  24 C24           -4.8943    -3.7786    -5.0224 C.ar    
  25 C25           -4.4838    -4.7450    -4.1064 C.ar    
  26 C26           -3.9198    -4.3654    -2.9218 C.ar    
  27 C27           -3.1871    -1.3246     1.2112 C.3     
  28 O28           -2.6020     0.7363     0.0928 O.3     
  29 H29            3.4500     1.5553     0.0291 H       
  30 H30            3.3534    -0.8855     0.1230 H       
  31 H31           -1.0720    -3.2208     0.1440 H       
  32 H32           -3.4002     0.7902    -2.0303 H       
  33 H33           -4.3958     0.0393    -4.1211 H       
  34 H34           -0.7627     3.5420    -0.1160 H       
  35 H35           -0.6413     5.9973    -0.2102 H       
  36 H36            1.5450     7.1255    -0.2186 H       
  37 H37            3.6197     5.8060    -0.1342 H       
  38 H38            3.5170     3.3500    -0.0334 H       
  39 H39           -2.8713    -3.2233    -0.7191 H       
  40 H40           -5.3386    -4.0935    -5.9550 H       
  41 H41           -4.6111    -5.7932    -4.3331 H       
  42 H42           -3.5961    -5.1010    -2.2004 H       
  43 H43           -2.7449    -0.9639     2.1400 H       
  44 H44           -4.2435    -1.0573     1.1839 H       
  45 H45           -3.0850    -2.4084     1.1571 H       
  46 H46           -2.1693     1.2088    -0.6315 H       
@<TRIPOS>BOND
   1    1    2 1
   2    1    3 2
   3    2    6 1
   4    2    9 1
   5    3    4 1
   6    3   12 1
   7    4    5 2
   8    4   29 1
   9    5    6 1
  10    5   30 1
  11    6    7 2
  12    7    8 1
  13    8    9 2
  14    8   31 1
  15    9   13 1
  16   10   11 ar
  17   10   13 1
  18   10   22 ar
  19   11   14 ar
  20   11   32 1
  21   12   15 ar
  22   12   19 ar
  23   13   27 1
  24   13   28 1
  25   14   20 ar
  26   14   33 1
  27   15   16 ar
  28   15   34 1
  29   16   17 ar
  30   16   35 1
  31   17   18 ar
  32   17   36 1
  33   18   19 ar
  34   18   37 1
  35   19   38 1
  36   20   21 ar
  37   20   23 ar
  38   21   22 ar
  39   21   26 ar
  40   22   39 1
  41   23   24 ar
  42   24   25 ar
  43   24   40 1
  44   25   26 ar
  45   25   41 1
  46   26   42 1
  47   27   43 1
  48   27   44 1
  49   27   45 1
  50   28   46 1

#	End of record

