#	Name: ASD01885673
#	Creating user name:	WinNT
#	Creation time:	15. 06. 2019 19:50

#	Modifying user name:	WinNT
#	Modification time:	15. 06. 2019 19:50

#	Program:	/corina/corina34_cracker 3.40 0067  02.08.2006

@<TRIPOS>MOLECULE
ASD01885673
  48   51    0    0    0
SMALL
NO_CHARGES


@<TRIPOS>ATOM
   1 C1            -0.0160     1.3290     0.0093 C.ar    
   2 C2             1.2006     2.0571     0.0016 C.ar    
   3 C3             2.4279     1.3474    -0.0134 C.ar    
   4 C4             2.3762    -0.0398    -0.0200 C.ar    
   5 C5             1.1334    -0.6832    -0.0116 C.ar    
   6 N6             0.0021    -0.0041     0.0020 N.ar    
   7 C7            -1.2256     3.3958     0.0258 C.ar    
   8 C8            -0.0270     4.1070     0.0226 C.ar    
   9 C9             1.1708     3.4578     0.0086 C.ar    
  10 C10            3.7240     2.0634    -0.0225 C.ar    
  11 C11            1.0867    -2.1653    -0.0196 C.2     
  12 C12           -2.5327     4.1456     0.0355 C.3     
  13 C13           -1.2343     2.0355     0.0189 C.ar    
  14 N14           -0.1011    -2.8021    -0.0131 N.am    
  15 O15            2.1192    -2.8056    -0.0321 O.2     
  16 N16           -2.9501     4.3815     1.4198 N.am    
  17 C17            4.7205     1.7183     0.8910 C.ar    
  18 C18            5.9261     2.3878     0.8782 C.ar    
  19 C19            6.1485     3.4022    -0.0397 C.ar    
  20 C20            5.1617     3.7487    -0.9491 C.ar    
  21 C21            3.9548     3.0813    -0.9482 C.ar    
  22 F22            7.3309     4.0557    -0.0476 F       
  23 C23           -2.5420     5.5040     2.0129 C.2     
  24 C24           -2.8552     5.8483     3.4408 C.3     
  25 C25           -4.0210     4.9910     3.9396 C.3     
  26 C26           -3.7336     3.5275     3.5831 C.3     
  27 C27           -3.7902     3.3775     2.0605 C.3     
  28 O28           -1.8823     6.2885     1.3647 O.2     
  29 H29            3.2882    -0.6182    -0.0318 H       
  30 H30           -0.0480     5.1868     0.0271 H       
  31 H31            2.0928     4.0202     0.0031 H       
  32 H32           -2.4073     5.1010    -0.4740 H       
  33 H33           -3.2930     3.5570    -0.4780 H       
  34 H34           -2.1718     1.4994     0.0203 H       
  35 H35           -0.9254    -2.2910    -0.0031 H       
  36 H36           -0.1316    -3.7716    -0.0184 H       
  37 H37            4.5479     0.9285     1.6071 H       
  38 H38            6.6982     2.1215     1.5849 H       
  39 H39            5.3412     4.5370    -1.6651 H       
  40 H40            3.1881     3.3490    -1.6602 H       
  41 H41           -1.9774     5.6610     4.0593 H       
  42 H42           -3.1259     6.9020     3.5081 H       
  43 H43           -4.1158     5.0936     5.0206 H       
  44 H44           -4.9447     5.3115     3.4577 H       
  45 H45           -2.7435     3.2506     3.9450 H       
  46 H46           -4.4858     2.8851     4.0410 H       
  47 H47           -4.8208     3.4938     1.7251 H       
  48 H48           -3.4340     2.3855     1.7827 H       
@<TRIPOS>BOND
   1    1    6 ar
   2    1    2 ar
   3    1   13 ar
   4    2    3 ar
   5    2    9 ar
   6    3   10 1
   7    3    4 ar
   8    4    5 ar
   9    4   29 1
  10    5   11 1
  11    5    6 ar
  12    7   12 1
  13    7   13 ar
  14    7    8 ar
  15    8    9 ar
  16    8   30 1
  17    9   31 1
  18   10   17 ar
  19   10   21 ar
  20   11   14 am
  21   11   15 2
  22   12   16 1
  23   12   32 1
  24   12   33 1
  25   13   34 1
  26   14   35 1
  27   14   36 1
  28   16   23 am
  29   16   27 1
  30   17   18 ar
  31   17   37 1
  32   18   19 ar
  33   18   38 1
  34   19   22 1
  35   19   20 ar
  36   20   21 ar
  37   20   39 1
  38   21   40 1
  39   23   24 1
  40   23   28 2
  41   24   25 1
  42   24   41 1
  43   24   42 1
  44   25   26 1
  45   25   43 1
  46   25   44 1
  47   26   27 1
  48   26   45 1
  49   26   46 1
  50   27   47 1
  51   27   48 1

#	End of record

