#	Name: ASD03330071
#	Creating user name:	WinNT
#	Creation time:	15. 06. 2019 20:36

#	Modifying user name:	WinNT
#	Modification time:	15. 06. 2019 20:36

#	Program:	/corina/corina34_cracker 3.40 0067  02.08.2006

@<TRIPOS>MOLECULE
ASD03330071
  71   75    0    0    0
SMALL
NO_CHARGES


@<TRIPOS>ATOM
   1 C1             0.1344     1.4754     0.0196 C.2     
   2 C2             0.0285     0.2607     0.6283 C.2     
   3 C3             1.3340     2.1229     0.2301 C.2     
   4 C4             2.2209     1.4288     1.0214 C.2     
   5 S5             1.5036    -0.0989     1.5136 S.3     
   6 C6             3.5688     1.8954     1.3982 C.ar    
   7 C7             3.9738     1.8647     2.7364 C.ar    
   8 C8             4.4478     2.3642     0.4191 C.ar    
   9 C9             5.7066     2.7986     0.7772 C.ar    
  10 C10            6.1010     2.7709     2.1057 C.ar    
  11 C11            5.2360     2.3021     3.0819 C.ar    
  12 C12            1.6421     3.4532    -0.3473 C.ar    
  13 C13            1.5503     3.6557    -1.7237 C.ar    
  14 C14            2.0187     4.5061     0.4856 C.ar    
  15 C15            2.3047     5.7424    -0.0548 C.ar    
  16 C16            2.2174     5.9392    -1.4262 C.ar    
  17 C17            1.8377     4.8945    -2.2576 C.ar    
  18 C18           -1.1431    -0.6161     0.5560 C.2     
  19 O19           -2.2621    -0.1450     0.6433 O.2     
  20 O20            2.4995     7.1588    -1.9554 O.3     
  21 N21           -0.9819    -1.9442     0.3930 N.am    
  22 C22           -2.1458    -2.8238     0.2188 C.3     
  23 C23            0.3615    -2.5391     0.3800 C.3     
  24 C24            0.5209    -3.3688    -0.8979 C.3     
  25 C25           -0.6183    -4.3870    -0.9857 C.3     
  26 C26           -1.9531    -3.6497    -1.0569 C.3     
  27 C27           -0.4458    -5.2279    -2.2243 C.ar    
  28 C28           -1.3765    -5.1557    -3.2439 C.ar    
  29 C29           -1.2183    -5.9271    -4.3800 C.ar    
  30 C30           -0.1291    -6.7703    -4.4968 C.ar    
  31 C31            0.8021    -6.8418    -3.4776 C.ar    
  32 C32            0.6461    -6.0672    -2.3434 C.ar    
  33 Cl33           2.8909     1.2782     3.9600 Cl      
  34 C34            2.3897     7.2916    -3.3740 C.3     
  35 C35            2.7429     8.7235    -3.7811 C.3     
  36 C36            2.6254     8.8656    -5.2999 C.3     
  37 O37            2.9553    10.2030    -5.6802 O.3     
  38 F38            7.3359     3.1975     2.4497 F       
  39 C39           -0.5927    -5.2752     0.2314 C.2     
  40 N40           -1.5898    -6.1570     0.4433 N.am    
  41 O41            0.3251    -5.1966     1.0203 O.2     
  42 H42           -0.6566     1.8957    -0.5838 H       
  43 H43            4.1422     2.3861    -0.6165 H       
  44 H44            6.3869     3.1609     0.0207 H       
  45 H45            5.5490     2.2830     4.1154 H       
  46 H46            1.2549     2.8433    -2.3712 H       
  47 H47            2.0861     4.3538     1.5526 H       
  48 H48            2.5964     6.5584     0.5897 H       
  49 H49            1.7708     5.0509    -3.3241 H       
  50 H50           -2.2312    -3.4909     1.0766 H       
  51 H51           -3.0495    -2.2208     0.1308 H       
  52 H52            1.1115    -1.7484     0.3981 H       
  53 H53            0.4847    -3.1825     1.2511 H       
  54 H54            0.4879    -2.7102    -1.7658 H       
  55 H55            1.4763    -3.8930    -0.8745 H       
  56 H56           -2.7640    -4.3729    -1.1430 H       
  57 H57           -1.9589    -2.9908    -1.9251 H       
  58 H58           -2.2274    -4.4969    -3.1526 H       
  59 H59           -1.9458    -5.8712    -5.1763 H       
  60 H60           -0.0059    -7.3735    -5.3841 H       
  61 H61            1.6528    -7.5008    -3.5687 H       
  62 H62            1.3736    -6.1230    -1.5471 H       
  63 H63            3.0757     6.5965    -3.8581 H       
  64 H64            1.3683     7.0678    -3.6819 H       
  65 H65            2.0569     9.4186    -3.2970 H       
  66 H66            3.7643     8.9473    -3.4732 H       
  67 H67            3.3113     8.1705    -5.7841 H       
  68 H68            1.6040     8.6418    -5.6078 H       
  69 H69            2.9020    10.3659    -6.6319 H       
  70 H70           -2.2852    -6.2721    -0.2231 H       
  71 H71           -1.6119    -6.6765     1.2621 H       
@<TRIPOS>BOND
   1    1    2 2
   2    1    3 1
   3    1   42 1
   4    2   18 1
   5    2    5 1
   6    3    4 2
   7    3   12 1
   8    4    5 1
   9    4    6 1
  10    6    7 ar
  11    6    8 ar
  12    7   33 1
  13    7   11 ar
  14    8    9 ar
  15    8   43 1
  16    9   10 ar
  17    9   44 1
  18   10   11 ar
  19   10   38 1
  20   11   45 1
  21   12   13 ar
  22   12   14 ar
  23   13   17 ar
  24   13   46 1
  25   14   15 ar
  26   14   47 1
  27   15   16 ar
  28   15   48 1
  29   16   17 ar
  30   16   20 1
  31   17   49 1
  32   18   19 2
  33   18   21 am
  34   20   34 1
  35   21   22 1
  36   21   23 1
  37   22   26 1
  38   22   50 1
  39   22   51 1
  40   23   24 1
  41   23   52 1
  42   23   53 1
  43   24   25 1
  44   24   54 1
  45   24   55 1
  46   25   26 1
  47   25   27 1
  48   25   39 1
  49   26   56 1
  50   26   57 1
  51   27   28 ar
  52   27   32 ar
  53   28   29 ar
  54   28   58 1
  55   29   30 ar
  56   29   59 1
  57   30   31 ar
  58   30   60 1
  59   31   32 ar
  60   31   61 1
  61   32   62 1
  62   34   35 1
  63   34   63 1
  64   34   64 1
  65   35   36 1
  66   35   65 1
  67   35   66 1
  68   36   37 1
  69   36   67 1
  70   36   68 1
  71   37   69 1
  72   39   40 am
  73   39   41 2
  74   40   70 1
  75   40   71 1

#	End of record

