#	Name: ASD01900142
#	Creating user name:	WinNT
#	Creation time:	15. 06. 2019 19:51

#	Modifying user name:	WinNT
#	Modification time:	15. 06. 2019 19:51

#	Program:	/corina/corina34_cracker 3.40 0067  02.08.2006

@<TRIPOS>MOLECULE
ASD01900142
  41   43    0    0    0
SMALL
NO_CHARGES


@<TRIPOS>ATOM
   1 C1            -0.0837     1.2230     0.5377 C.2     
   2 N2             0.0056     0.0102    -0.0434 N.am    
   3 O3             0.8954     1.7197     1.0630 O.2     
   4 C4             1.2468    -0.6299    -0.1399 C.ar    
   5 C5             1.3251    -2.0119    -0.0308 C.ar    
   6 C6             2.5531    -2.6443    -0.1264 C.ar    
   7 C7             3.7078    -1.8921    -0.3319 C.ar    
   8 C8             3.6251    -0.5114    -0.4404 C.ar    
   9 C9             2.3986     0.1173    -0.3505 C.ar    
  10 N10            4.9525    -2.5300    -0.4286 N.am    
  11 C11            6.0803    -1.8559    -0.1284 C.2     
  12 O12            2.6322    -3.9975    -0.0193 O.3     
  13 C13            1.4082    -4.7042     0.1913 C.3     
  14 C14            7.3983    -2.4867    -0.3472 C.ar    
  15 O15            6.0131    -0.7288     0.3225 O.2     
  16 C16            8.5695    -1.7909    -0.0372 C.ar    
  17 C17            9.7981    -2.3876    -0.2442 C.ar    
  18 C18            9.8695    -3.6697    -0.7572 C.ar    
  19 C19            8.7126    -4.3639    -1.0667 C.ar    
  20 C20            7.4792    -3.7831    -0.8595 C.ar    
  21 Cl21           8.4811    -0.1808     0.6058 Cl      
  22 C22           -1.3583     1.9463     0.5316 C.2     
  23 C23           -1.5741     3.1770     1.0852 C.2     
  24 C24           -2.8648     3.6243     0.9297 C.2     
  25 C25           -3.6792     2.7906     0.2722 C.2     
  26 S26           -2.8531     1.3729    -0.1955 S.3     
  27 H27           -0.7901    -0.4191    -0.3947 H       
  28 H28            0.4289    -2.5930     0.1289 H       
  29 H29            4.5201     0.0719    -0.5994 H       
  30 H30            2.3361     1.1922    -0.4352 H       
  31 H31            5.0020    -3.4565    -0.7116 H       
  32 H32            0.9468    -4.3636     1.1182 H       
  33 H33            0.7316    -4.5154    -0.6422 H       
  34 H34            1.6126    -5.7728     0.2584 H       
  35 H35           10.7047    -1.8515    -0.0052 H       
  36 H36           10.8325    -4.1315    -0.9175 H       
  37 H37            8.7761    -5.3647    -1.4677 H       
  38 H38            6.5778    -4.3265    -1.1016 H       
  39 H39           -0.8071     3.7420     1.5940 H       
  40 H40           -3.1972     4.5786     1.3108 H       
  41 H41           -4.7205     2.9887     0.0652 H       
@<TRIPOS>BOND
   1    1    2 am
   2    1    3 2
   3    1   22 1
   4    2    4 1
   5    2   27 1
   6    4    5 ar
   7    4    9 ar
   8    5    6 ar
   9    5   28 1
  10    6    7 ar
  11    6   12 1
  12    7    8 ar
  13    7   10 1
  14    8    9 ar
  15    8   29 1
  16    9   30 1
  17   10   11 am
  18   10   31 1
  19   11   14 1
  20   11   15 2
  21   12   13 1
  22   13   32 1
  23   13   33 1
  24   13   34 1
  25   14   16 ar
  26   14   20 ar
  27   16   17 ar
  28   16   21 1
  29   17   18 ar
  30   17   35 1
  31   18   19 ar
  32   18   36 1
  33   19   20 ar
  34   19   37 1
  35   20   38 1
  36   22   23 2
  37   22   26 1
  38   23   24 1
  39   23   39 1
  40   24   25 2
  41   24   40 1
  42   25   26 1
  43   25   41 1

#	End of record

