#	Name: ASD01881606
#	Creating user name:	WinNT
#	Creation time:	15. 06. 2019 19:43

#	Modifying user name:	WinNT
#	Modification time:	15. 06. 2019 19:43

#	Program:	/corina/corina34_cracker 3.40 0067  02.08.2006

@<TRIPOS>MOLECULE
ASD01881606
  55   58    0    0    0
SMALL
NO_CHARGES


@<TRIPOS>ATOM
   1 C1            -0.0159     1.3213     0.0093 C.ar    
   2 N2             0.0021    -0.0041     0.0020 N.ar    
   3 C3             1.1431    -0.6659    -0.0125 C.ar    
   4 C4             2.3444     0.0522    -0.0201 C.ar    
   5 C5             2.2810     1.4504    -0.0120 C.ar    
   6 N6             1.0996     2.0372     0.0025 N.ar    
   7 C7            -1.3227     2.0239     0.0193 C.2     
   8 O8            -2.3560     1.3849     0.0206 O.2     
   9 N9            -1.3635     3.3711     0.0268 N.am    
  10 C10            3.6501    -0.6498    -0.0359 C.ar    
  11 C11            4.8376     0.0809    -0.0434 C.ar    
  12 C12            6.0498    -0.5779    -0.0582 C.ar    
  13 C13            6.0885    -1.9609    -0.0656 C.ar    
  14 C14            4.9138    -2.6911    -0.0587 C.ar    
  15 C15            3.6954    -2.0431    -0.0376 C.ar    
  16 C16            7.3341     0.2104    -0.0668 C.3     
  17 O17            7.7530     0.4532     1.2777 O.3     
  18 N18           12.3540     3.2662     2.2382 N.pl3   
  19 N19           12.2815     3.2076     3.6378 N.2     
  20 N20           11.2273     2.5575     3.9851 N.2     
  21 C21           10.5469     2.1512     2.8947 C.ar    
  22 C22           11.2511     2.5946     1.7618 C.ar    
  23 C23            9.3607     1.4246     2.7222 C.ar    
  24 C24            8.9037     1.1576     1.4482 C.ar    
  25 C25            9.6124     1.6039     0.3354 C.ar    
  26 C26           10.7709     2.3121     0.4881 C.ar    
  27 C27           13.3950     3.9191     1.4406 C.3     
  28 C28           14.5170     2.9201     1.1505 C.3     
  29 C29           13.9513     1.7293     0.3740 C.3     
  30 C30           15.6042     3.6020     0.3176 C.3     
  31 C31           15.1173     2.4300     2.4697 C.3     
  32 Br32           8.3920     0.8145     4.2272 Br      
  33 H33            1.1501    -1.7459    -0.0180 H       
  34 H34            3.1858     2.0400    -0.0172 H       
  35 H35           -0.5385     3.8813     0.0257 H       
  36 H36           -2.2178     3.8304     0.0333 H       
  37 H37            4.8086     1.1605    -0.0380 H       
  38 H38            7.0397    -2.4723    -0.0771 H       
  39 H39            4.9501    -3.7705    -0.0652 H       
  40 H40            2.7788    -2.6142    -0.0274 H       
  41 H41            8.1043    -0.3556    -0.5907 H       
  42 H42            7.1733     1.1614    -0.5746 H       
  43 H43            9.2436     1.3877    -0.6564 H       
  44 H44           11.3133     2.6535    -0.3812 H       
  45 H45           12.9674     4.2682     0.5008 H       
  46 H46           13.7980     4.7675     1.9938 H       
  47 H47           13.5237     2.0784    -0.5658 H       
  48 H48           14.7506     1.0175     0.1673 H       
  49 H49           13.1767     1.2435     0.9674 H       
  50 H50           16.0072     4.4503     0.8707 H       
  51 H51           16.4035     2.8903     0.1109 H       
  52 H52           15.1766     3.9511    -0.6223 H       
  53 H53           14.3427     1.9442     3.0631 H       
  54 H54           15.9166     1.7183     2.2630 H       
  55 H55           15.5203     3.2784     3.0229 H       
@<TRIPOS>BOND
   1    1    2 ar
   2    1    6 ar
   3    1    7 1
   4    2    3 ar
   5    3    4 ar
   6    3   33 1
   7    4    5 ar
   8    4   10 1
   9    5    6 ar
  10    5   34 1
  11    7    8 2
  12    7    9 am
  13    9   35 1
  14    9   36 1
  15   10   11 ar
  16   10   15 ar
  17   11   12 ar
  18   11   37 1
  19   12   13 ar
  20   12   16 1
  21   13   14 ar
  22   13   38 1
  23   14   15 ar
  24   14   39 1
  25   15   40 1
  26   16   17 1
  27   16   41 1
  28   16   42 1
  29   17   24 1
  30   18   19 1
  31   18   22 1
  32   18   27 1
  33   19   20 2
  34   20   21 1
  35   21   22 ar
  36   21   23 ar
  37   22   26 ar
  38   23   24 ar
  39   23   32 1
  40   24   25 ar
  41   25   26 ar
  42   25   43 1
  43   26   44 1
  44   27   28 1
  45   27   45 1
  46   27   46 1
  47   28   29 1
  48   28   30 1
  49   28   31 1
  50   29   47 1
  51   29   48 1
  52   29   49 1
  53   30   50 1
  54   30   51 1
  55   30   52 1
  56   31   53 1
  57   31   54 1
  58   31   55 1

#	End of record

