#	Name: ASD05430374
#	Creating user name:	WinNT
#	Creation time:	15. 06. 2019 21:00

#	Modifying user name:	WinNT
#	Modification time:	15. 06. 2019 21:00

#	Program:	/corina/corina34_cracker 3.40 0067  02.08.2006

@<TRIPOS>MOLECULE
ASD05430374
  62   66    0    0    0
SMALL
NO_CHARGES


@<TRIPOS>ATOM
   1 C1            -1.0642    -0.5652    -0.3973 C.ar    
   2 C2            -0.0103    -0.0081     0.3266 C.ar    
   3 C3            -0.1683     1.2202     0.9559 C.ar    
   4 C4            -1.3669     1.8938     0.8682 C.ar    
   5 C5            -2.4283     1.3412     0.1438 C.ar    
   6 C6            -2.2674     0.1074    -0.4943 C.ar    
   7 C7            -4.8620     1.3700    -0.0453 C.2     
   8 C8            -3.7095     2.0592     0.0490 C.2     
   9 N9            -7.3029     1.4503     0.1966 N.pl3   
  10 C10           -6.1512     2.0258    -0.3122 C.2     
  11 C11           -8.2561     2.6940     2.0303 C.ar    
  12 C12           -9.3516     2.7278     2.8728 C.ar    
  13 C13           -7.0030     3.0262     2.5104 C.ar    
  14 C14           -6.8440     3.3920     3.8336 C.ar    
  15 C15           -7.9405     3.4262     4.6783 C.ar    
  16 C16           -9.1952     3.0937     4.1962 C.ar    
  17 F17           -7.7863     3.7832     5.9721 F       
  18 O18           -0.9059    -1.7673    -1.0123 O.3     
  19 C19           -2.0269    -2.2782    -1.7365 C.3     
  20 C20            2.4549    -0.1688     0.1743 C.2     
  21 N21            1.2104    -0.6892     0.4198 N.pl3   
  22 C22            3.3407    -1.1616     0.3817 C.2     
  23 N23            2.6615    -2.2600     0.7441 N.2     
  24 C24            1.3847    -1.9899     0.7706 C.2     
  25 C25            4.8365    -1.0568     0.2321 C.3     
  26 N26           -7.3610     0.0891     0.3134 N.3     
  27 C27           -6.1599    -0.4621     0.9599 C.3     
  28 C28           -4.9208    -0.1437     0.1106 C.3     
  29 C29           -8.5801    -0.3272     1.0193 C.3     
  30 C30           -8.4270     2.2888     0.5889 C.3     
  31 C31           -8.5319     3.5430    -0.2687 C.3     
  32 C32           -7.6029     3.4990    -1.4739 C.3     
  33 N33           -6.2528     3.0789    -1.0740 N.2     
  34 O34           -9.8786     3.6795    -0.7268 O.3     
  35 H35            0.6504     1.6480     1.5155 H       
  36 H36           -1.4871     2.8482     1.3591 H       
  37 H37           -3.0843    -0.3228    -1.0547 H       
  38 H38           -3.7251     3.1391     0.0551 H       
  39 H39          -10.3301     2.4684     2.4965 H       
  40 H40           -6.1478     2.9995     1.8513 H       
  41 H41           -5.8649     3.6508     4.2086 H       
  42 H42          -10.0512     3.1203     4.8542 H       
  43 H43           -2.8704    -2.4051    -1.0579 H       
  44 H44           -2.2984    -1.5784    -2.5268 H       
  45 H45           -1.7668    -3.2407    -2.1770 H       
  46 H46            2.6809     0.8421    -0.1314 H       
  47 H47            0.5986    -2.6842     1.0282 H       
  48 H48            5.2765    -0.7547     1.1825 H       
  49 H49            5.2408    -2.0248    -0.0640 H       
  50 H50            5.0744    -0.3152    -0.5304 H       
  51 H51           -6.0425    -0.0154     1.9473 H       
  52 H52           -6.2666    -1.5420     1.0622 H       
  53 H53           -5.0102    -0.6149    -0.8682 H       
  54 H54           -4.0228    -0.5005     0.6152 H       
  55 H55           -9.4549     0.0137     0.4656 H       
  56 H56           -8.6010    -1.4141     1.0984 H       
  57 H57           -8.5890     0.1099     2.0178 H       
  58 H58           -9.3483     1.7147     0.4909 H       
  59 H59           -8.2785     4.4101     0.3412 H       
  60 H60           -7.9967     2.7932    -2.2052 H       
  61 H61           -7.5517     4.4904    -1.9241 H       
  62 H62          -10.0283     4.4572    -1.2816 H       
@<TRIPOS>BOND
   1    1    2 ar
   2    1   18 1
   3    1    6 ar
   4    2    3 ar
   5    2   21 1
   6    3    4 ar
   7    3   35 1
   8    4    5 ar
   9    4   36 1
  10    5    6 ar
  11    5    8 1
  12    6   37 1
  13    7    8 2
  14    7   28 1
  15    7   10 1
  16    8   38 1
  17    9   10 1
  18    9   30 1
  19    9   26 1
  20   10   33 2
  21   11   12 ar
  22   11   13 ar
  23   11   30 1
  24   12   16 ar
  25   12   39 1
  26   13   14 ar
  27   13   40 1
  28   14   15 ar
  29   14   41 1
  30   15   16 ar
  31   15   17 1
  32   16   42 1
  33   18   19 1
  34   19   43 1
  35   19   44 1
  36   19   45 1
  37   20   21 1
  38   20   22 2
  39   20   46 1
  40   21   24 1
  41   22   23 1
  42   22   25 1
  43   23   24 2
  44   24   47 1
  45   25   48 1
  46   25   49 1
  47   25   50 1
  48   26   27 1
  49   26   29 1
  50   27   28 1
  51   27   51 1
  52   27   52 1
  53   28   53 1
  54   28   54 1
  55   29   55 1
  56   29   56 1
  57   29   57 1
  58   30   31 1
  59   30   58 1
  60   31   32 1
  61   31   34 1
  62   31   59 1
  63   32   33 1
  64   32   60 1
  65   32   61 1
  66   34   62 1

#	End of record

