#	Name: ASD01912988
#	Creating user name:	WinNT
#	Creation time:	15. 06. 2019 20:00

#	Modifying user name:	WinNT
#	Modification time:	15. 06. 2019 20:00

#	Program:	/corina/corina34_cracker 3.40 0067  02.08.2006

@<TRIPOS>MOLECULE
ASD01912988
  41   44    0    0    0
SMALL
NO_CHARGES


@<TRIPOS>ATOM
   1 C1             0.0270     1.4260     0.0144 C.2     
   2 C2             0.0607    -0.0056     0.0070 C.1     
   3 C3             0.0883    -1.1793     0.0009 C.1     
   4 C4             0.1220    -2.6108    -0.0065 C.ar    
   5 C5            -1.0695    -3.3417     0.0162 C.ar    
   6 C6             1.3464    -3.2845    -0.0424 C.ar    
   7 C7             1.3708    -4.6633    -0.0498 C.ar    
   8 C8             0.1872    -5.3800    -0.0224 C.ar    
   9 C9            -1.0290    -4.7201     0.0083 C.ar    
  10 N10            1.0679     2.2066    -0.0047 N.2     
  11 C11            0.8641     3.5127     0.0073 C.2     
  12 C12           -0.4382     3.8674     0.0331 C.2     
  13 S13           -1.4299     2.4145     0.0433 S.3     
  14 C14            1.9951     4.5329     0.0008 C.3     
  15 C15            1.4483     5.8865    -0.4567 C.3     
  16 N16            0.2051     6.1750     0.2741 N.am    
  17 C17           -0.9493     5.2908     0.0409 C.3     
  18 C18            0.1251     7.2137     1.1292 C.2     
  19 C19           -1.1705     7.5613     1.7510 C.ar    
  20 O20            1.1181     7.8649     1.3891 O.2     
  21 C21           -1.2121     8.0477     3.0583 C.ar    
  22 C22           -2.4242     8.3708     3.6333 C.ar    
  23 C23           -3.5970     8.2137     2.9170 C.ar    
  24 C24           -3.5633     7.7314     1.6192 C.ar    
  25 C25           -2.3565     7.4096     1.0309 C.ar    
  26 Cl26          -5.0406     7.5376     0.7283 Cl      
  27 H27           -2.0193    -2.8282     0.0401 H       
  28 H28            2.2709    -2.7266    -0.0646 H       
  29 H29            2.3159    -5.1852    -0.0775 H       
  30 H30            0.2126    -6.4596    -0.0291 H       
  31 H31           -1.9485    -5.2862     0.0297 H       
  32 H32            2.4064     4.6270     1.0058 H       
  33 H33            2.7769     4.2055    -0.6845 H       
  34 H34            2.1823     6.6651    -0.2489 H       
  35 H35            1.2429     5.8538    -1.5266 H       
  36 H36           -1.4066     5.5251    -0.9204 H       
  37 H37           -1.6798     5.4175     0.8399 H       
  38 H38           -0.2974     8.1708     3.6192 H       
  39 H39           -2.4572     8.7470     4.6451 H       
  40 H40           -4.5430     8.4677     3.3719 H       
  41 H41           -2.3309     7.0339     0.0186 H       
@<TRIPOS>BOND
   1    1    2 1
   2    1   10 2
   3    1   13 1
   4    2    3 3
   5    3    4 1
   6    4    5 ar
   7    4    6 ar
   8    5    9 ar
   9    5   27 1
  10    6    7 ar
  11    6   28 1
  12    7    8 ar
  13    7   29 1
  14    8    9 ar
  15    8   30 1
  16    9   31 1
  17   10   11 1
  18   11   12 2
  19   11   14 1
  20   12   13 1
  21   12   17 1
  22   14   15 1
  23   14   32 1
  24   14   33 1
  25   15   16 1
  26   15   34 1
  27   15   35 1
  28   16   17 1
  29   16   18 am
  30   17   36 1
  31   17   37 1
  32   18   19 1
  33   18   20 2
  34   19   21 ar
  35   19   25 ar
  36   21   22 ar
  37   21   38 1
  38   22   23 ar
  39   22   39 1
  40   23   24 ar
  41   23   40 1
  42   24   25 ar
  43   24   26 1
  44   25   41 1

#	End of record

