#	Name: ASD01884006
#	Creating user name:	WinNT
#	Creation time:	15. 06. 2019 19:47

#	Modifying user name:	WinNT
#	Modification time:	15. 06. 2019 19:47

#	Program:	/corina/corina34_cracker 3.40 0067  02.08.2006

@<TRIPOS>MOLECULE
ASD01884006
  55   59    0    0    0
SMALL
NO_CHARGES


@<TRIPOS>ATOM
   1 C1             0.0279     0.9829    -0.1175 C.3     
   2 O2             0.0641    -0.4403     0.0058 O.3     
   3 C3             0.6811    -0.9491     1.1052 C.ar    
   4 C4             2.0412    -1.2294     1.0723 C.ar    
   5 F5             2.7524    -0.9961    -0.0524 F       
   6 C6             2.6671    -1.7470     2.1920 C.ar    
   7 C7             1.9399    -1.9860     3.3433 C.ar    
   8 C8             0.5840    -1.7075     3.3786 C.ar    
   9 F9            -0.1242    -1.9416     4.5050 F       
  10 C10           -0.0450    -1.1837     2.2627 C.ar    
  11 C11           -1.5194    -0.8745     2.3037 C.3     
  12 C12           -2.3007    -2.1552     2.6062 C.3     
  13 C13           -3.8007    -1.8440     2.6128 C.3     
  14 N14           -4.0518    -0.7467     3.5571 N.pl3   
  15 C15           -3.2870     0.4994     3.4116 C.3     
  16 C16           -1.7928     0.1619     3.3961 C.3     
  17 C17           -4.9973    -0.8849     4.5706 C.2     
  18 C18           -4.5885    -0.8944     5.9184 C.2     
  19 N19           -5.4596    -1.0234     6.8820 N.2     
  20 N20           -6.8200    -1.1547     6.5987 N.pl3   
  21 C21           -7.9334    -1.3013     7.3647 C.2     
  22 C22           -7.9768    -1.3648     8.8697 C.3     
  23 C23           -8.1417     0.0473     9.4352 C.3     
  24 C24           -9.4220     0.3506    10.2160 C.3     
  25 C25           -8.0900     0.2099    10.9556 C.3     
  26 N26           -8.9607    -1.3773     6.5574 N.2     
  27 N27           -8.5744    -1.2889     5.3328 N.2     
  28 C28           -7.2582    -1.1496     5.2952 C.2     
  29 C29           -6.3243    -1.0059     4.2569 C.2     
  30 C30           -6.7750    -0.9911     2.8190 C.3     
  31 F31           -6.6975    -2.2849     2.2926 F       
  32 F32           -8.0966    -0.5376     2.7492 F       
  33 F33           -5.9493    -0.1368     2.0802 F       
  34 H34            1.0461     1.3710    -0.1471 H       
  35 H35           -0.4915     1.2549    -1.0364 H       
  36 H36           -0.4984     1.4084     0.7370 H       
  37 H37            3.7245    -1.9650     2.1668 H       
  38 H38            2.4301    -2.3909     4.2163 H       
  39 H39           -1.8340    -0.4768     1.3389 H       
  40 H40           -2.0873    -2.9010     1.8405 H       
  41 H41           -2.0047    -2.5401     3.5821 H       
  42 H42           -4.1163    -1.5453     1.6132 H       
  43 H43           -4.3560    -2.7286     2.9246 H       
  44 H44           -3.5608     0.9892     2.4772 H       
  45 H45           -3.5035     1.1610     4.2504 H       
  46 H46           -1.5016    -0.2448     4.3645 H       
  47 H47           -1.2179     1.0653     3.1925 H       
  48 H48           -3.5402    -0.7940     6.1579 H       
  49 H49           -8.8186    -1.9822     9.1832 H       
  50 H50           -7.0491    -1.7992     9.2420 H       
  51 H51           -7.7199     0.8488     8.8287 H       
  52 H52           -9.8428     1.3518    10.1232 H       
  53 H53          -10.1469    -0.4558    10.3269 H       
  54 H54           -7.9386    -0.6891    11.5531 H       
  55 H55           -7.6346     1.1186    11.3494 H       
@<TRIPOS>BOND
   1    1    2 1
   2    1   34 1
   3    1   35 1
   4    1   36 1
   5    2    3 1
   6    3   10 ar
   7    3    4 ar
   8    4    5 1
   9    4    6 ar
  10    6    7 ar
  11    6   37 1
  12    7    8 ar
  13    7   38 1
  14    8    9 1
  15    8   10 ar
  16   10   11 1
  17   11   16 1
  18   11   12 1
  19   11   39 1
  20   12   13 1
  21   12   40 1
  22   12   41 1
  23   13   14 1
  24   13   42 1
  25   13   43 1
  26   14   15 1
  27   14   17 1
  28   15   16 1
  29   15   44 1
  30   15   45 1
  31   16   46 1
  32   16   47 1
  33   17   29 2
  34   17   18 1
  35   18   19 2
  36   18   48 1
  37   19   20 1
  38   20   28 1
  39   20   21 1
  40   21   22 1
  41   21   26 2
  42   22   23 1
  43   22   49 1
  44   22   50 1
  45   23   25 1
  46   23   24 1
  47   23   51 1
  48   24   25 1
  49   24   52 1
  50   24   53 1
  51   25   54 1
  52   25   55 1
  53   26   27 1
  54   27   28 2
  55   28   29 1
  56   29   30 1
  57   30   31 1
  58   30   32 1
  59   30   33 1

#	End of record

