#	Name: ASD01916295
#	Creating user name:	WinNT
#	Creation time:	15. 06. 2019 20:07

#	Modifying user name:	WinNT
#	Modification time:	15. 06. 2019 20:07

#	Program:	/corina/corina34_cracker 3.40 0067  02.08.2006

@<TRIPOS>MOLECULE
ASD01916295
  42   43    0    0    0
SMALL
NO_CHARGES


@<TRIPOS>ATOM
   1 C1            -0.0169     1.3974     0.0097 C.ar    
   2 C2             0.0021    -0.0041     0.0020 C.ar    
   3 C3             1.2365    -0.6676    -0.0133 C.ar    
   4 N4             2.3606     0.0097    -0.0204 N.ar    
   5 C5             2.3777     1.3384    -0.0135 C.ar    
   6 C6             1.1902     2.0701     0.0018 C.ar    
   7 C7            -1.2220    -0.7472     0.0102 C.1     
   8 C8            -2.2255    -1.3564     0.0169 C.1     
   9 C9            -3.4496    -2.0996     0.0250 C.ar    
  10 C10            3.6742     2.0515    -0.0215 C.2     
  11 O11            3.6995     3.2667    -0.0152 O.2     
  12 N12            4.8271     1.3536    -0.0358 N.am    
  13 C13            6.1107     2.0596    -0.0438 C.3     
  14 C14            7.1931     1.1567     0.5511 C.3     
  15 C15            6.4838     2.4233    -1.4824 C.3     
  16 C16            6.7612     0.6919     1.9433 C.3     
  17 O17            7.3819     0.0195    -0.2934 O.3     
  18 C18            8.5054     1.9360     0.6580 C.3     
  19 N19           -3.4149    -3.4287     0.0176 N.ar    
  20 C20           -4.5183    -4.1473     0.0251 C.ar    
  21 C21           -5.7617    -3.5412     0.0407 C.ar    
  22 C22           -5.8451    -2.1553     0.0490 C.ar    
  23 C23           -4.6719    -1.4227     0.0466 C.ar    
  24 H24           -0.9518     1.9381     0.0171 H       
  25 H25            1.2630    -1.7473    -0.0190 H       
  26 H26            1.2139     3.1498     0.0070 H       
  27 H27            4.8069     0.3838    -0.0408 H       
  28 H28            6.0288     2.9692     0.5513 H       
  29 H29            6.5657     1.5137    -2.0775 H       
  30 H30            5.7127     3.0666    -1.9062 H       
  31 H31            7.4389     2.9486    -1.4883 H       
  32 H32            5.8263     0.1367     1.8672 H       
  33 H33            7.5323     0.0486     2.3671 H       
  34 H34            6.6172     1.5593     2.5875 H       
  35 H35            6.5890    -0.5223    -0.4067 H       
  36 H36            8.3614     2.8034     1.3022 H       
  37 H37            9.2766     1.2927     1.0818 H       
  38 H38            8.8132     2.2671    -0.3339 H       
  39 H39           -4.4516    -5.2253     0.0186 H       
  40 H40           -6.6599    -4.1409     0.0461 H       
  41 H41           -6.8049    -1.6603     0.0612 H       
  42 H42           -4.7003    -0.3431     0.0532 H       
@<TRIPOS>BOND
   1    1    2 ar
   2    1    6 ar
   3    1   24 1
   4    2    3 ar
   5    2    7 1
   6    3    4 ar
   7    3   25 1
   8    4    5 ar
   9    5    6 ar
  10    5   10 1
  11    6   26 1
  12    7    8 3
  13    8    9 1
  14    9   19 ar
  15    9   23 ar
  16   10   11 2
  17   10   12 am
  18   12   13 1
  19   12   27 1
  20   13   14 1
  21   13   15 1
  22   13   28 1
  23   14   16 1
  24   14   17 1
  25   14   18 1
  26   15   29 1
  27   15   30 1
  28   15   31 1
  29   16   32 1
  30   16   33 1
  31   16   34 1
  32   17   35 1
  33   18   36 1
  34   18   37 1
  35   18   38 1
  36   19   20 ar
  37   20   21 ar
  38   20   39 1
  39   21   22 ar
  40   21   40 1
  41   22   23 ar
  42   22   41 1
  43   23   42 1

#	End of record

