#	Name: ASD01820049
#	Creating user name:	WinNT
#	Creation time:	15. 06. 2019 19:36

#	Modifying user name:	WinNT
#	Modification time:	15. 06. 2019 19:36

#	Program:	/corina/corina34_cracker 3.40 0067  02.08.2006

@<TRIPOS>MOLECULE
ASD01820049
  87   90    0    0    0
SMALL
NO_CHARGES


@<TRIPOS>ATOM
   1 N1            -0.0178     1.4608     0.0101 N.am    
   2 C2             0.0021    -0.0041     0.0020 C.3     
   3 C3             0.0228    -0.5218     1.4416 C.3     
   4 C4             0.0435    -2.0516     1.4332 C.3     
   5 N5             0.0634    -2.5486     2.8154 N.4     
   6 C6             0.0833    -4.0175     2.8073 C.3     
   7 C7             0.1040    -4.5352     4.2469 C.3     
   8 C8             0.1247    -6.0650     4.2385 C.3     
   9 C9             0.1454    -6.5827     5.6781 C.3     
  10 C10            0.1662    -8.1125     5.6697 C.3     
  11 C11            0.1869    -8.6302     7.1093 C.3     
  12 C12            1.2626    -2.0464     3.4992 C.3     
  13 C13           -1.1359    -2.0791     3.5219 C.3     
  14 N14            0.2068   -10.0991     7.1013 N.4     
  15 C15            0.2266   -10.5961     8.4835 C.3     
  16 C16            0.2474   -12.1260     8.4751 C.3     
  17 C17            0.2681   -12.6437     9.9147 C.3     
  18 N18            0.2879   -14.1085     9.9066 N.am    
  19 C19           -0.9925   -10.6013     6.4175 C.3     
  20 C20            1.4061   -10.5686     6.3947 C.3     
  21 C21            1.4073   -14.8545     9.8919 C.2     
  22 C22            1.0222   -16.2816     9.8885 C.ar    
  23 C23           -0.3871   -16.3008     9.9021 C.ar    
  24 C24           -0.8107   -14.8847     9.9188 C.2     
  25 C25            1.7275   -17.4743     9.8760 C.ar    
  26 C26            1.0411   -18.6785     9.8770 C.ar    
  27 C27           -0.3410   -18.6973     9.8899 C.ar    
  28 C28           -1.0598   -17.5122     9.9030 C.ar    
  29 O29           -1.9586   -14.4883     9.9339 O.2     
  30 O30            2.5440   -14.4270     9.8824 O.2     
  31 C31            1.0809     2.2370     0.0038 C.2     
  32 C32            0.6572     3.6531     0.0149 C.ar    
  33 C33           -0.7520     3.6339     0.0279 C.ar    
  34 C34           -1.1372     2.2068     0.0189 C.2     
  35 C35            1.3299     4.8645     0.0143 C.ar    
  36 C36            0.6111     6.0496     0.0266 C.ar    
  37 C37           -0.7710     6.0308     0.0399 C.ar    
  38 C38           -1.4573     4.8266     0.0405 C.ar    
  39 O39            2.2288     1.8406    -0.0090 O.2     
  40 O40           -2.2739     1.7793     0.0252 O.2     
  41 C41            1.3415     7.3678     0.0260 C.3     
  42 H42           -0.8878    -0.3767    -0.5053 H       
  43 H43            0.8920    -0.3525    -0.5222 H       
  44 H44            0.9126    -0.1491     1.9490 H       
  45 H45           -0.8671    -0.1733     1.9659 H       
  46 H46           -0.8463    -2.4242     0.9258 H       
  47 H47            0.9334    -2.4000     0.9090 H       
  48 H48           -0.8065    -4.3901     2.3000 H       
  49 H49            0.9732    -4.3659     2.2831 H       
  50 H50            0.9938    -4.1625     4.7543 H       
  51 H51           -0.7859    -4.1868     4.7712 H       
  52 H52           -0.7651    -6.4377     3.7312 H       
  53 H53            1.0146    -6.4134     3.7143 H       
  54 H54            1.0353    -6.2101     6.1855 H       
  55 H55           -0.7445    -6.2343     6.2024 H       
  56 H56           -0.7237    -8.4852     5.1624 H       
  57 H57            1.0561    -8.4610     5.1455 H       
  58 H58            1.0767    -8.2576     7.6167 H       
  59 H59           -0.7030    -8.2818     7.6336 H       
  60 H60            1.2478    -0.9565     3.5052 H       
  61 H61            1.2774    -2.4152     4.5248 H       
  62 H62            2.1525    -2.3948     2.9750 H       
  63 H63           -2.0258    -2.4517     3.0146 H       
  64 H64           -1.1212    -2.4479     4.5475 H       
  65 H65           -1.1507    -0.9892     3.5279 H       
  66 H66            1.1165   -10.2235     8.9908 H       
  67 H67           -0.6632   -10.2477     9.0077 H       
  68 H68           -0.6424   -12.4986     7.9677 H       
  69 H69            1.1373   -12.4744     7.9508 H       
  70 H70            1.1579   -12.2710    10.4220 H       
  71 H71           -0.6218   -12.2952    10.4389 H       
  72 H72           -1.0072   -10.2325     5.3919 H       
  73 H73           -0.9777   -11.6912     6.4115 H       
  74 H74           -1.8823   -10.2529     6.9417 H       
  75 H75            2.2959   -10.1960     6.9021 H       
  76 H76            1.4209   -11.6585     6.3888 H       
  77 H77            1.3913   -10.1998     5.3691 H       
  78 H78            2.8074   -17.4656     9.8651 H       
  79 H79            1.5900   -19.6086     9.8672 H       
  80 H80           -0.8644   -19.6420     9.8898 H       
  81 H81           -2.1395   -17.5329     9.9130 H       
  82 H82            2.4097     4.8852     0.0047 H       
  83 H83           -1.3199     6.9609     0.0501 H       
  84 H84           -2.5373     4.8179     0.0501 H       
  85 H85            1.5080     7.6905    -1.0017 H       
  86 H86            0.7440     8.1145     0.5490 H       
  87 H87            2.3008     7.2518     0.5304 H       
@<TRIPOS>BOND
   1    1    2 1
   2    1   31 am
   3    1   34 am
   4    2    3 1
   5    2   42 1
   6    2   43 1
   7    3    4 1
   8    3   44 1
   9    3   45 1
  10    4    5 1
  11    4   46 1
  12    4   47 1
  13    5    6 1
  14    5   12 1
  15    5   13 1
  16    6    7 1
  17    6   48 1
  18    6   49 1
  19    7    8 1
  20    7   50 1
  21    7   51 1
  22    8    9 1
  23    8   52 1
  24    8   53 1
  25    9   10 1
  26    9   54 1
  27    9   55 1
  28   10   11 1
  29   10   56 1
  30   10   57 1
  31   11   14 1
  32   11   58 1
  33   11   59 1
  34   12   60 1
  35   12   61 1
  36   12   62 1
  37   13   63 1
  38   13   64 1
  39   13   65 1
  40   14   15 1
  41   14   19 1
  42   14   20 1
  43   15   16 1
  44   15   66 1
  45   15   67 1
  46   16   17 1
  47   16   68 1
  48   16   69 1
  49   17   18 1
  50   17   70 1
  51   17   71 1
  52   18   21 am
  53   18   24 am
  54   19   72 1
  55   19   73 1
  56   19   74 1
  57   20   75 1
  58   20   76 1
  59   20   77 1
  60   21   22 1
  61   21   30 2
  62   22   23 ar
  63   22   25 ar
  64   23   24 1
  65   23   28 ar
  66   24   29 2
  67   25   26 ar
  68   25   78 1
  69   26   27 ar
  70   26   79 1
  71   27   28 ar
  72   27   80 1
  73   28   81 1
  74   31   32 1
  75   31   39 2
  76   32   33 ar
  77   32   35 ar
  78   33   34 1
  79   33   38 ar
  80   34   40 2
  81   35   36 ar
  82   35   82 1
  83   36   37 ar
  84   36   41 1
  85   37   38 ar
  86   37   83 1
  87   38   84 1
  88   41   85 1
  89   41   86 1
  90   41   87 1

#	End of record

