#	Name: ASD01200191
#	Creating user name:	WinNT
#	Creation time:	15. 06. 2019 19:08

#	Modifying user name:	WinNT
#	Modification time:	15. 06. 2019 19:08

#	Program:	/corina/corina34_cracker 3.40 0067  02.08.2006

@<TRIPOS>MOLECULE
ASD01200191
  55   57    0    0    0
SMALL
NO_CHARGES


@<TRIPOS>ATOM
   1 C1             0.9721     1.3760    -1.7400 C.2     
   2 C2             0.8689    -0.1231    -1.6265 C.3     
   3 O3             1.5740     2.0079    -0.8978 O.2     
   4 N4             0.4001     2.0141    -2.7802 N.am    
   5 C5             0.4050     3.4072    -2.8315 C.ar    
   6 C6            -0.0841     4.0567    -3.9594 C.ar    
   7 C7            -0.0733     5.4397    -3.9973 C.ar    
   8 C8             0.4283     6.1284    -2.9011 C.ar    
   9 C9             0.8981     5.4185    -1.8139 C.ar    
  10 N10            0.8702     4.0995    -1.8040 N.ar    
  11 S11            1.7401    -0.6781    -0.1354 S.3     
  12 N12            2.6015    -3.2253    -0.3713 N.am    
  13 C13            1.3821    -2.4559    -0.0914 C.3     
  14 C14            0.9454    -2.8654     1.2960 C.2     
  15 C15            1.8256    -3.7607     1.7324 C.2     
  16 C16            2.8512    -3.9886     0.7093 C.2     
  17 O17            3.7891    -4.7547     0.8204 O.2     
  18 C18            1.7767    -4.4400     3.0767 C.3     
  19 C19           -0.2596    -2.3551     2.0435 C.3     
  20 C20            3.3956    -3.1761    -1.6014 C.3     
  21 C21            4.4549    -2.1120    -1.4732 C.ar    
  22 C22            5.6964    -2.4331    -0.9584 C.ar    
  23 C23            6.6734    -1.4549    -0.8389 C.ar    
  24 C24            6.4032    -0.1547    -1.2369 C.ar    
  25 C25            5.1571     0.1649    -1.7535 C.ar    
  26 C26            4.1851    -0.8181    -1.8758 C.ar    
  27 O27            4.8891     1.4386    -2.1441 O.3     
  28 C28            5.9380     2.3974    -1.9942 C.3     
  29 O29            7.8939    -1.7711    -0.3317 O.3     
  30 C30            8.8510    -0.7142    -0.2376 C.3     
  31 H31           -0.1804    -0.4113    -1.5627 H       
  32 H32            1.3200    -0.5858    -2.5043 H       
  33 H33           -0.0150     1.5040    -3.4932 H       
  34 H34           -0.4668     3.4893    -4.7949 H       
  35 H35           -0.4464     5.9715    -4.8601 H       
  36 H36            0.4512     7.2081    -2.8989 H       
  37 H37            1.2895     5.9499    -0.9591 H       
  38 H38            0.6077    -2.7011    -0.8182 H       
  39 H39            1.1961    -5.3592     2.9984 H       
  40 H40            2.7899    -4.6768     3.4012 H       
  41 H41            1.3086    -3.7754     3.8028 H       
  42 H42           -1.0960    -3.0379     1.8939 H       
  43 H43           -0.0277    -2.2920     3.1066 H       
  44 H44           -0.5266    -1.3663     1.6705 H       
  45 H45            3.8703    -4.1434    -1.7663 H       
  46 H46            2.7455    -2.9419    -2.4444 H       
  47 H47            5.9064    -3.4462    -0.6484 H       
  48 H48            7.1622     0.6081    -1.1444 H       
  49 H49            3.2155    -0.5705    -2.2820 H       
  50 H50            6.8015     2.0863    -2.5821 H       
  51 H51            5.5929     3.3709    -2.3425 H       
  52 H52            6.2197     2.4664    -0.9434 H       
  53 H53            9.0428    -0.3083    -1.2308 H       
  54 H54            8.4608     0.0730     0.4075 H       
  55 H55            9.7795    -1.1011     0.1823 H       
@<TRIPOS>BOND
   1    1    2 1
   2    1    3 2
   3    1    4 am
   4    2   11 1
   5    2   31 1
   6    2   32 1
   7    4    5 1
   8    4   33 1
   9    5    6 ar
  10    5   10 ar
  11    6    7 ar
  12    6   34 1
  13    7    8 ar
  14    7   35 1
  15    8    9 ar
  16    8   36 1
  17    9   10 ar
  18    9   37 1
  19   11   13 1
  20   12   13 1
  21   12   16 am
  22   12   20 1
  23   13   14 1
  24   13   38 1
  25   14   15 2
  26   14   19 1
  27   15   16 1
  28   15   18 1
  29   16   17 2
  30   18   39 1
  31   18   40 1
  32   18   41 1
  33   19   42 1
  34   19   43 1
  35   19   44 1
  36   20   21 1
  37   20   45 1
  38   20   46 1
  39   21   22 ar
  40   21   26 ar
  41   22   23 ar
  42   22   47 1
  43   23   24 ar
  44   23   29 1
  45   24   25 ar
  46   24   48 1
  47   25   26 ar
  48   25   27 1
  49   26   49 1
  50   27   28 1
  51   28   50 1
  52   28   51 1
  53   28   52 1
  54   29   30 1
  55   30   53 1
  56   30   54 1
  57   30   55 1

#	End of record

