#	Name: ASD03320023
#	Creating user name:	WinNT
#	Creation time:	15. 06. 2019 20:35

#	Modifying user name:	WinNT
#	Modification time:	15. 06. 2019 20:35

#	Program:	/corina/corina34_cracker 3.40 0067  02.08.2006

@<TRIPOS>MOLECULE
ASD03320023
  72   76    0    0    0
SMALL
NO_CHARGES


@<TRIPOS>ATOM
   1 C1            -0.0858     0.3411     0.8187 C.ar    
   2 C2            -0.0284    -1.0405     0.6375 C.ar    
   3 C3             1.0713     1.0878     0.7965 C.ar    
   4 C4             2.3024     0.4609     0.5925 C.ar    
   5 C5             2.3589    -0.9226     0.4111 C.ar    
   6 C6             1.2007    -1.6675     0.4336 C.ar    
   7 C7             3.5449     1.2615     0.5680 C.2     
   8 N8             3.5738     2.4412    -0.0831 N.am    
   9 O9             4.5406     0.8558     1.1351 O.2     
  10 C10           -1.2750    -1.8437     0.6621 C.ar    
  11 C11           -1.2305    -3.2238     0.4824 C.ar    
  12 C12           -2.4318    -3.9322     0.5150 C.ar    
  13 N13           -3.5670    -3.2684     0.7149 N.ar    
  14 C14           -3.5669    -1.9608     0.8809 C.ar    
  15 N15           -2.4556    -1.2559     0.8623 N.ar    
  16 N16           -2.4424    -5.3079     0.3410 N.pl3   
  17 C17           -3.6346    -6.0222     0.4910 C.ar    
  18 C18           -3.8515    -7.1777    -0.2488 C.ar    
  19 C19           -5.0303    -7.8813    -0.0978 C.ar    
  20 C20           -5.9942    -7.4364     0.7884 C.ar    
  21 C21           -5.7816    -6.2862     1.5261 C.ar    
  22 C22           -4.6025    -5.5813     1.3845 C.ar    
  23 C23            4.7643     3.3008    -0.0212 C.3     
  24 C24            5.2283     3.5991    -1.4522 C.3     
  25 N25            4.0701     4.0487    -2.2373 N.am    
  26 C26            2.8797     3.1891    -2.2993 C.3     
  27 C27            2.4178     2.8881    -0.8728 C.3     
  28 C28            4.0990     5.2284    -2.8885 C.2     
  29 C29            5.3419     6.0257    -2.9174 C.ar    
  30 O30            3.1020     5.6362    -3.4520 O.2     
  31 C31            5.3173     7.3783    -2.5643 C.ar    
  32 C32            6.4862     8.1174    -2.5938 C.ar    
  33 C33            7.6745     7.5209    -2.9710 C.ar    
  34 C34            7.7044     6.1818    -3.3216 C.ar    
  35 C35            6.5487     5.4308    -3.2921 C.ar    
  36 F36            4.1558     7.9616    -2.1959 F       
  37 C37           -7.2794    -8.2065     0.9502 C.3     
  38 C38           -6.9666    -9.6269     1.4251 C.3     
  39 C39           -8.1664    -7.5074     1.9824 C.3     
  40 C40           -8.0102    -8.2671    -0.3927 C.3     
  41 H41           -1.0385     0.8263     0.9721 H       
  42 H42            1.0266     2.1577     0.9366 H       
  43 H43            3.3105    -1.4082     0.2528 H       
  44 H44            1.2442    -2.7375     0.2934 H       
  45 H45           -0.2912    -3.7321     0.3218 H       
  46 H46           -4.5065    -1.4531     1.0411 H       
  47 H47           -1.6226    -5.7746     0.1152 H       
  48 H48           -3.0994    -7.5253    -0.9416 H       
  49 H49           -5.1996    -8.7797    -0.6727 H       
  50 H50           -6.5367    -5.9411     2.2168 H       
  51 H51           -4.4370    -4.6831     1.9610 H       
  52 H52            4.5159     4.2337     0.4849 H       
  53 H53            5.5582     2.7875     0.5213 H       
  54 H54            5.9853     4.3832    -1.4353 H       
  55 H55            5.6439     2.6954    -1.8980 H       
  56 H56            2.0857     3.7023    -2.8418 H       
  57 H57            3.1280     2.2562    -2.8054 H       
  58 H58            1.6608     2.1041    -0.8912 H       
  59 H59            2.0023     3.7907    -0.4247 H       
  60 H60            6.4702     9.1625    -2.3218 H       
  61 H61            8.5843     8.1024    -2.9927 H       
  62 H62            8.6370     5.7230    -3.6153 H       
  63 H63            6.5749     4.3865    -3.5661 H       
  64 H64           -6.4460    -9.5837     2.3817 H       
  65 H65           -7.8962   -10.1839     1.5421 H       
  66 H66           -6.3347   -10.1250     0.6897 H       
  67 H67           -8.3893    -6.4955     1.6440 H       
  68 H68           -9.0960    -8.0644     2.0994 H       
  69 H69           -7.6458    -7.4643     2.9390 H       
  70 H70           -7.3783    -8.7651    -1.1281 H       
  71 H71           -8.9398    -8.8241    -0.2757 H       
  72 H72           -8.2330    -7.2552    -0.7310 H       
@<TRIPOS>BOND
   1    1    2 ar
   2    1    3 ar
   3    1   41 1
   4    2   10 1
   5    2    6 ar
   6    3    4 ar
   7    3   42 1
   8    4    5 ar
   9    4    7 1
  10    5    6 ar
  11    5   43 1
  12    6   44 1
  13    7    8 am
  14    7    9 2
  15    8   23 1
  16    8   27 1
  17   10   11 ar
  18   10   15 ar
  19   11   12 ar
  20   11   45 1
  21   12   13 ar
  22   12   16 1
  23   13   14 ar
  24   14   15 ar
  25   14   46 1
  26   16   17 1
  27   16   47 1
  28   17   18 ar
  29   17   22 ar
  30   18   19 ar
  31   18   48 1
  32   19   20 ar
  33   19   49 1
  34   20   21 ar
  35   20   37 1
  36   21   22 ar
  37   21   50 1
  38   22   51 1
  39   23   24 1
  40   23   52 1
  41   23   53 1
  42   24   25 1
  43   24   54 1
  44   24   55 1
  45   25   26 1
  46   25   28 am
  47   26   27 1
  48   26   56 1
  49   26   57 1
  50   27   58 1
  51   27   59 1
  52   28   29 1
  53   28   30 2
  54   29   31 ar
  55   29   35 ar
  56   31   32 ar
  57   31   36 1
  58   32   33 ar
  59   32   60 1
  60   33   34 ar
  61   33   61 1
  62   34   35 ar
  63   34   62 1
  64   35   63 1
  65   37   38 1
  66   37   39 1
  67   37   40 1
  68   38   64 1
  69   38   65 1
  70   38   66 1
  71   39   67 1
  72   39   68 1
  73   39   69 1
  74   40   70 1
  75   40   71 1
  76   40   72 1

#	End of record

