#	Name: ASD03092774
#	Creating user name:	WinNT
#	Creation time:	15. 06. 2019 20:33

#	Modifying user name:	WinNT
#	Modification time:	15. 06. 2019 20:33

#	Program:	/corina/corina34_cracker 3.40 0067  02.08.2006

@<TRIPOS>MOLECULE
ASD03092774
  60   63    0    0    0
SMALL
NO_CHARGES


@<TRIPOS>ATOM
   1 C1            -0.0877     1.4899    -0.7561 C.3     
   2 C2            -0.0620    -0.0364    -0.6529 C.3     
   3 C3            -1.4332    -0.5378    -0.2792 C.2     
   4 O4            -2.3420     0.2487    -0.1119 O.2     
   5 C5            -1.6689    -1.9745    -0.1181 C.2     
   6 C6            -0.6865    -3.0515    -0.2760 C.2     
   7 C7            -1.3486    -4.2110    -0.0316 C.2     
   8 C8            -0.7570    -5.5658    -0.0751 C.ar    
   9 C9            -1.3694    -6.6203     0.6033 C.ar    
  10 C10           -0.8113    -7.8786     0.5595 C.ar    
  11 C11            0.3606    -8.1053    -0.1575 C.ar    
  12 O12            0.8805    -9.3609    -0.1641 O.3     
  13 C13            1.8414    -9.6806    -1.1710 C.3     
  14 C14            2.9056    -8.5759    -1.1926 C.3     
  15 C15            2.2347    -7.2709    -1.6280 C.3     
  16 C16            3.1895    -6.1009    -1.3820 C.3     
  17 C17            1.8945    -7.3457    -3.1178 C.3     
  18 C18            0.9693    -7.0611    -0.8351 C.ar    
  19 C19            0.4122    -5.7967    -0.7987 C.ar    
  20 N20           -2.6590    -3.9193     0.2628 N.pl3   
  21 C21           -2.8621    -2.5882     0.2198 C.2     
  22 C22           -4.1681    -1.8868     0.4908 C.3     
  23 C23           -3.6417    -4.8698     0.5692 C.ar    
  24 C24           -4.0888    -5.7482    -0.4087 C.ar    
  25 C25           -5.0576    -6.6841    -0.1036 C.ar    
  26 C26           -5.5826    -6.7465     1.1741 C.ar    
  27 C27           -5.1394    -5.8730     2.1502 C.ar    
  28 C28           -4.1663    -4.9390     1.8529 C.ar    
  29 S29           -6.8193    -7.9411     1.5591 S.o2    
  30 N30           -6.0379    -9.3057     2.0782 N.am    
  31 O31           -7.5308    -7.4351     2.6803 O.2     
  32 O32           -7.4458    -8.2805     0.3297 O.2     
  33 H33            0.9041     1.8525    -1.0263 H       
  34 H34           -0.8050     1.7904    -1.5198 H       
  35 H35           -0.3804     1.9141     0.2043 H       
  36 H36            0.2307    -0.4607    -1.6133 H       
  37 H37            0.6553    -0.3370     0.1109 H       
  38 H38            0.3563    -2.9437    -0.5358 H       
  39 H39           -2.2783    -6.4501     1.1613 H       
  40 H40           -1.2854    -8.6945     1.0849 H       
  41 H41            2.3101   -10.6373    -0.9406 H       
  42 H42            1.3504    -9.7363    -2.1426 H       
  43 H43            3.3308    -8.4558    -0.1961 H       
  44 H44            3.6929    -8.8379    -1.8994 H       
  45 H45            4.1028    -6.2500    -1.9578 H       
  46 H46            2.7123    -5.1712    -1.6919 H       
  47 H47            3.4335    -6.0480    -0.3210 H       
  48 H48            1.2155    -8.1800    -3.2940 H       
  49 H49            1.4167    -6.4166    -3.4285 H       
  50 H50            2.8089    -7.4939    -3.6923 H       
  51 H51            0.8866    -4.9841    -1.3288 H       
  52 H52           -4.7282    -1.7897    -0.4393 H       
  53 H53           -4.7503    -2.4669     1.2067 H       
  54 H54           -3.9703    -0.8964     0.9009 H       
  55 H55           -3.6797    -5.6995    -1.4071 H       
  56 H56           -5.4058    -7.3676    -0.8639 H       
  57 H57           -5.5513    -5.9242     3.1473 H       
  58 H58           -3.8171    -4.2603     2.6170 H       
  59 H59           -5.0690    -9.3237     2.1197 H       
  60 H60           -6.5492   -10.0871     2.3408 H       
@<TRIPOS>BOND
   1    1    2 1
   2    1   33 1
   3    1   34 1
   4    1   35 1
   5    2    3 1
   6    2   36 1
   7    2   37 1
   8    3    4 2
   9    3    5 1
  10    5   21 2
  11    5    6 1
  12    6    7 2
  13    6   38 1
  14    7    8 1
  15    7   20 1
  16    8   19 ar
  17    8    9 ar
  18    9   10 ar
  19    9   39 1
  20   10   11 ar
  21   10   40 1
  22   11   18 ar
  23   11   12 1
  24   12   13 1
  25   13   14 1
  26   13   41 1
  27   13   42 1
  28   14   15 1
  29   14   43 1
  30   14   44 1
  31   15   16 1
  32   15   17 1
  33   15   18 1
  34   16   45 1
  35   16   46 1
  36   16   47 1
  37   17   48 1
  38   17   49 1
  39   17   50 1
  40   18   19 ar
  41   19   51 1
  42   20   21 1
  43   20   23 1
  44   21   22 1
  45   22   52 1
  46   22   53 1
  47   22   54 1
  48   23   28 ar
  49   23   24 ar
  50   24   25 ar
  51   24   55 1
  52   25   26 ar
  53   25   56 1
  54   26   27 ar
  55   26   29 1
  56   27   28 ar
  57   27   57 1
  58   28   58 1
  59   29   30 am
  60   29   31 2
  61   29   32 2
  62   30   59 1
  63   30   60 1

#	End of record

