#	Name: ASD08178036
#	Creating user name:	WinNT
#	Creation time:	15. 06. 2019 21:18

#	Modifying user name:	WinNT
#	Modification time:	15. 06. 2019 21:18

#	Program:	/corina/corina34_cracker 3.40 0067  02.08.2006

@<TRIPOS>MOLECULE
ASD08178036
  60   62    0    0    0
SMALL
NO_CHARGES


@<TRIPOS>ATOM
   1 C1            -0.0167     1.3781     0.0096 C.ar    
   2 C2             0.0021    -0.0041     0.0020 C.ar    
   3 C3             1.2084    -0.6789    -0.0132 C.ar    
   4 C4             2.3960     0.0285    -0.0212 C.ar    
   5 C5             2.3773     1.4107    -0.0145 C.ar    
   6 C6             1.1710     2.0855     0.0021 C.ar    
   7 O7             3.4049     2.0467    -2.3638 O.2     
   8 C8             4.0905     2.4457    -1.4463 C.2     
   9 C9             3.6720     2.1819    -0.0228 C.3     
  10 N10            4.9652     2.9929    -4.0750 N.2     
  11 C11            5.6129     3.3683    -3.0135 C.2     
  12 N12            5.2266     3.1249    -1.6998 N.am    
  13 N13            5.4554     3.2956    -5.1984 N.2     
  14 C14            6.5683     3.9581    -5.1855 C.2     
  15 S15            7.0221     4.2122    -3.4999 S.3     
  16 C16            7.3377     4.4269    -6.3935 C.3     
  17 C17            6.8605     5.8252    -6.7909 C.3     
  18 S18            7.7866     6.3896    -8.2451 S.3     
  19 C19            7.0912     8.0355    -8.5582 C.3     
  20 C20            7.7791     8.6566    -9.7755 C.3     
  21 C21            7.2014    10.0240   -10.0357 C.2     
  22 N22            7.6319    11.1417    -9.5426 N.2     
  23 N23            7.0096    12.1861    -9.8829 N.2     
  24 C24            6.0010    12.0510   -10.6902 C.2     
  25 S25            5.8221    10.3907   -11.0723 S.3     
  26 N26            5.2023    13.0837   -11.1694 N.am    
  27 C27            5.4501    14.3553   -10.7978 C.2     
  28 O28            6.3697    14.5990   -10.0454 O.2     
  29 C29            4.5847    15.4744   -11.3171 C.3     
  30 N30            4.7214    16.6459   -10.4414 N.3     
  31 C31            5.0247    15.8435   -12.7352 C.3     
  32 C32            4.8823    14.6233   -13.6472 C.3     
  33 C33            4.1461    16.9797   -13.2624 C.3     
  34 H34           -0.9592     1.9054     0.0170 H       
  35 H35           -0.9258    -0.5567     0.0083 H       
  36 H36            1.2231    -1.7588    -0.0184 H       
  37 H37            3.3386    -0.4987    -0.0324 H       
  38 H38            1.1563     3.1654     0.0069 H       
  39 H39            3.5335     3.1300     0.4968 H       
  40 H40            4.4443     1.6008     0.4812 H       
  41 H41            5.7750     3.4440    -0.9661 H       
  42 H42            8.4011     4.4596    -6.1568 H       
  43 H43            7.1706     3.7372    -7.2208 H       
  44 H44            5.7970     5.7926    -7.0277 H       
  45 H45            7.0275     6.5150    -5.9636 H       
  46 H46            6.0219     7.9475    -8.7507 H       
  47 H47            7.2525     8.6699    -7.6867 H       
  48 H48            8.8484     8.7446    -9.5830 H       
  49 H49            7.6178     8.0222   -10.6471 H       
  50 H50            4.4669    12.8889   -11.7712 H       
  51 H51            3.5437    15.1516   -11.3321 H       
  52 H52            4.3767    16.4466    -9.5143 H       
  53 H53            5.6783    16.9646   -10.4106 H       
  54 H54            6.0657    16.1663   -12.7201 H       
  55 H55            3.8413    14.3005   -13.6622 H       
  56 H56            5.1958    14.8863   -14.6575 H       
  57 H57            5.5083    13.8139   -13.2716 H       
  58 H58            4.2476    17.8489   -12.6126 H       
  59 H59            4.4596    17.2426   -14.2726 H       
  60 H60            3.1051    16.6569   -13.2774 H       
@<TRIPOS>BOND
   1    1    2 ar
   2    1    6 ar
   3    1   34 1
   4    2    3 ar
   5    2   35 1
   6    3    4 ar
   7    3   36 1
   8    4    5 ar
   9    4   37 1
  10    5    6 ar
  11    5    9 1
  12    6   38 1
  13    7    8 2
  14    8    9 1
  15    8   12 am
  16    9   39 1
  17    9   40 1
  18   10   11 2
  19   10   13 1
  20   11   12 1
  21   11   15 1
  22   12   41 1
  23   13   14 2
  24   14   15 1
  25   14   16 1
  26   16   17 1
  27   16   42 1
  28   16   43 1
  29   17   18 1
  30   17   44 1
  31   17   45 1
  32   18   19 1
  33   19   20 1
  34   19   46 1
  35   19   47 1
  36   20   21 1
  37   20   48 1
  38   20   49 1
  39   21   22 2
  40   21   25 1
  41   22   23 1
  42   23   24 2
  43   24   25 1
  44   24   26 1
  45   26   27 am
  46   26   50 1
  47   27   28 2
  48   27   29 1
  49   29   30 1
  50   29   31 1
  51   29   51 1
  52   30   52 1
  53   30   53 1
  54   31   32 1
  55   31   33 1
  56   31   54 1
  57   32   55 1
  58   32   56 1
  59   32   57 1
  60   33   58 1
  61   33   59 1
  62   33   60 1

#	End of record

