#	Name: ASD01914081
#	Creating user name:	WinNT
#	Creation time:	15. 06. 2019 20:02

#	Modifying user name:	WinNT
#	Modification time:	15. 06. 2019 20:02

#	Program:	/corina/corina34_cracker 3.40 0067  02.08.2006

@<TRIPOS>MOLECULE
ASD01914081
  39   41    0    0    0
SMALL
NO_CHARGES


@<TRIPOS>ATOM
   1 C1            -0.0167     1.3784     0.0096 C.ar    
   2 C2             0.0021    -0.0041     0.0020 C.ar    
   3 C3             2.3989     0.0304    -0.0203 C.ar    
   4 C4             2.3773     1.4175    -0.0135 C.ar    
   5 O5             3.5855    -0.6319    -0.0361 O.3     
   6 C6             3.5315    -2.0599    -0.0423 C.3     
   7 C7             4.9322    -2.6155    -0.0599 C.ar    
   8 N8             5.1117    -3.9224    -0.0680 N.ar    
   9 C9             6.3142    -4.4592    -0.0834 C.ar    
  10 C10            7.4518    -3.6514    -0.0913 C.ar    
  11 C11            7.2934    -2.2602    -0.0831 C.ar    
  12 C12            6.0088    -1.7466    -0.0730 C.ar    
  13 C13            8.8016    -4.2542    -0.1077 C.2     
  14 N14            8.9410    -5.5947    -0.1150 N.am    
  15 O15            9.7858    -3.5408    -0.1144 O.2     
  16 C16            1.2070    -0.6796    -0.0127 C.ar    
  17 C17           10.2786    -6.1921    -0.1312 C.3     
  18 C18            1.1698     2.0883     0.0021 C.ar    
  19 C19           10.1560    -7.7171    -0.1368 C.3     
  20 C20           11.4458    -8.5290    -0.2717 C.3     
  21 C21           10.7127    -8.4750     1.0701 C.3     
  22 H22           -0.9597     1.9047     0.0170 H       
  23 H23           -0.9260    -0.5563     0.0079 H       
  24 H24            3.3038     1.9724    -0.0201 H       
  25 H25            3.0138    -2.4077     0.8516 H       
  26 H26            2.9948    -2.3993    -0.9282 H       
  27 H27            6.4207    -5.5339    -0.0897 H       
  28 H28            8.1519    -1.6050    -0.0888 H       
  29 H29            5.8481    -0.6786    -0.0665 H       
  30 H30            8.1556    -6.1640    -0.1096 H       
  31 H31            1.2211    -1.7595    -0.0179 H       
  32 H32           10.8108    -5.8671    -1.0252 H       
  33 H33           10.8288    -5.8750     0.7547 H       
  34 H34            1.1525     3.1682     0.0074 H       
  35 H35            9.2590    -8.1150    -0.6112 H       
  36 H36           11.3972    -9.4612    -0.8346 H       
  37 H37           12.3816    -7.9766    -0.3565 H       
  38 H38           11.1663    -7.8871     1.8681 H       
  39 H39           10.1818    -9.3716     1.3900 H       
@<TRIPOS>BOND
   1    1    2 ar
   2    1   18 ar
   3    1   22 1
   4    2   16 ar
   5    2   23 1
   6    3    4 ar
   7    3    5 1
   8    3   16 ar
   9    4   18 ar
  10    4   24 1
  11    5    6 1
  12    6    7 1
  13    6   25 1
  14    6   26 1
  15    7    8 ar
  16    7   12 ar
  17    8    9 ar
  18    9   10 ar
  19    9   27 1
  20   10   11 ar
  21   10   13 1
  22   11   12 ar
  23   11   28 1
  24   12   29 1
  25   13   14 am
  26   13   15 2
  27   14   17 1
  28   14   30 1
  29   16   31 1
  30   17   19 1
  31   17   32 1
  32   17   33 1
  33   18   34 1
  34   19   20 1
  35   19   21 1
  36   19   35 1
  37   20   21 1
  38   20   36 1
  39   20   37 1
  40   21   38 1
  41   21   39 1

#	End of record

