#	Name: ASD02508468
#	Creating user name:	WinNT
#	Creation time:	15. 06. 2019 20:24

#	Modifying user name:	WinNT
#	Modification time:	15. 06. 2019 20:24

#	Program:	/corina/corina34_cracker 3.40 0067  02.08.2006

@<TRIPOS>MOLECULE
ASD02508468
  33   35    0    0    0
SMALL
NO_CHARGES


@<TRIPOS>ATOM
   1 C1            -0.0323     1.3849    -0.0204 C.2     
   2 C2             0.0218    -0.0219    -0.1005 C.2     
   3 C3             1.3194    -0.3815    -0.0426 C.2     
   4 N4             2.0722     0.7540     0.0706 N.pl3   
   5 C5             1.2341     1.8340     0.0835 C.2     
   6 C6             3.4634     0.8025     0.1588 C.ar    
   7 N7             4.1088     0.0605     1.0521 N.ar    
   8 C8             4.1981     1.6258    -0.6928 C.ar    
   9 C9             5.5751     1.6393    -0.5673 C.ar    
  10 N10            6.1476     0.8754     0.3509 N.ar    
  11 C11            5.4240     0.1030     1.1385 C.ar    
  12 S12            1.9384    -2.0301    -0.1020 S.o2    
  13 N13            1.9630    -2.4874    -1.6935 N.am    
  14 C14            2.8089    -1.8364    -2.5941 C.ar    
  15 C15            3.5619    -2.5740    -3.4985 C.ar    
  16 C16            4.3991    -1.9271    -4.3897 C.ar    
  17 C17            4.4871    -0.5452    -4.3803 C.ar    
  18 C18            3.7375     0.1923    -3.4792 C.ar    
  19 C19            2.8940    -0.4502    -2.5906 C.ar    
  20 O20            3.2944    -1.9649     0.3177 O.2     
  21 O21            0.9660    -2.8471     0.5353 O.2     
  22 Cl22           6.2243    -0.8784     2.3260 Cl      
  23 F23            5.1318    -2.6441    -5.2696 F       
  24 F24            3.8256     1.5404    -3.4718 F       
  25 H25           -0.9253     1.9919    -0.0429 H       
  26 H26           -0.8224    -0.6893    -0.1915 H       
  27 H27            1.5349     2.8682     0.1627 H       
  28 H28            3.7040     2.2380    -1.4328 H       
  29 H29            6.1765     2.2647    -1.2104 H       
  30 H30            1.3898    -3.2074    -2.0001 H       
  31 H31            3.4941    -3.6519    -3.5057 H       
  32 H32            5.1415    -0.0418    -5.0765 H       
  33 H33            2.3093     0.1254    -1.8882 H       
@<TRIPOS>BOND
   1    1    2 1
   2    1    5 2
   3    1   25 1
   4    2    3 2
   5    2   26 1
   6    3    4 1
   7    3   12 1
   8    4    5 1
   9    4    6 1
  10    5   27 1
  11    6    7 ar
  12    6    8 ar
  13    7   11 ar
  14    8    9 ar
  15    8   28 1
  16    9   10 ar
  17    9   29 1
  18   10   11 ar
  19   11   22 1
  20   12   13 am
  21   12   20 2
  22   12   21 2
  23   13   14 1
  24   13   30 1
  25   14   15 ar
  26   14   19 ar
  27   15   16 ar
  28   15   31 1
  29   16   17 ar
  30   16   23 1
  31   17   18 ar
  32   17   32 1
  33   18   19 ar
  34   18   24 1
  35   19   33 1

#	End of record

