#	Name: ASD07930486
#	Creating user name:	WinNT
#	Creation time:	15. 06. 2019 21:12

#	Modifying user name:	WinNT
#	Modification time:	15. 06. 2019 21:12

#	Program:	/corina/corina34_cracker 3.40 0067  02.08.2006

@<TRIPOS>MOLECULE
ASD07930486
  53   56    0    0    0
SMALL
NO_CHARGES


@<TRIPOS>ATOM
   1 C1            -0.0859     1.4833     0.0825 C.3     
   2 N2             0.7649    -0.3494    -2.1149 N.2     
   3 N3            -0.8989    -1.7539    -1.2663 N.pl3   
   4 C4            -0.9061    -2.8103    -0.2489 C.3     
   5 C5            -1.2269    -2.1930     1.1193 C.3     
   6 S6            -0.0085    -0.8824     1.4544 S.o2    
   7 N7            -0.0448     0.0191     0.0535 N.am    
   8 C8            -0.0347    -0.6854    -1.1419 C.2     
   9 C9             0.4687    -3.4798    -0.1978 C.3     
  10 C10           -1.9539    -3.8363    -0.5962 C.ar    
  11 C11           -2.7903    -3.6302    -1.6754 C.ar    
  12 C12           -3.7555    -4.5764    -1.9953 C.ar    
  13 C13           -3.8770    -5.7278    -1.2288 C.ar    
  14 C14           -3.0382    -5.9300    -0.1502 C.ar    
  15 C15           -2.0733    -4.9880     0.1638 C.ar    
  16 N16           -4.6046    -4.3694    -3.0882 N.am    
  17 C17           -5.0129    -5.4164    -3.8322 C.2     
  18 O18           -4.5658    -6.5261    -3.6170 O.2     
  19 O19           -0.4827     0.0016     2.4608 O.2     
  20 O20            1.3072    -1.4170     1.5015 O.2     
  21 F21           -1.2539    -5.1877     1.2192 F       
  22 C22           -6.0049    -5.2152    -4.9105 C.ar    
  23 N23           -6.4889    -3.9999    -5.1398 N.ar    
  24 C24           -7.3713    -3.7758    -6.0870 C.ar    
  25 C25           -7.8340    -4.8143    -6.8908 C.ar    
  26 C26           -7.3506    -6.1032    -6.6818 C.ar    
  27 C27           -6.4182    -6.3028    -5.6799 C.ar    
  28 O28           -8.7460    -4.5730    -7.8665 O.3     
  29 C29           -9.2658    -5.7071    -8.5635 C.3     
  30 C30          -10.6397    -5.5634    -9.2212 C.3     
  31 C31           -9.3786    -5.6097   -10.0862 C.3     
  32 H32            0.9312     1.8753     0.0817 H       
  33 H33           -0.6171     1.8493    -0.7961 H       
  34 H34           -0.6023     1.8145     0.9834 H       
  35 H35            1.3662     0.4045    -2.0100 H       
  36 H36           -1.4979    -1.8083    -2.0273 H       
  37 H37           -2.2301    -1.7670     1.1042 H       
  38 H38           -1.1641    -2.9593     1.8920 H       
  39 H39            1.2253    -2.7371     0.0555 H       
  40 H40            0.4627    -4.2647     0.5585 H       
  41 H41            0.6976    -3.9144    -1.1708 H       
  42 H42           -2.6944    -2.7338    -2.2700 H       
  43 H43           -4.6271    -6.4646    -1.4757 H       
  44 H44           -3.1324    -6.8255     0.4462 H       
  45 H45           -4.8992    -3.4723    -3.3103 H       
  46 H46           -7.7426    -2.7738    -6.2439 H       
  47 H47           -7.6927    -6.9271    -7.2904 H       
  48 H48           -6.0218    -7.2893    -5.4900 H       
  49 H49           -9.0103    -6.6777    -8.1385 H       
  50 H50          -11.2880    -6.4396    -9.2292 H       
  51 H51          -11.1472    -4.6038    -9.1223 H       
  52 H52           -9.0563    -4.6806   -10.5564 H       
  53 H53           -9.1972    -6.5164   -10.6633 H       
@<TRIPOS>BOND
   1    1    7 1
   2    1   32 1
   3    1   33 1
   4    1   34 1
   5    2    8 2
   6    2   35 1
   7    3    4 1
   8    3    8 1
   9    3   36 1
  10    4    5 1
  11    4    9 1
  12    4   10 1
  13    5    6 1
  14    5   37 1
  15    5   38 1
  16    6    7 am
  17    6   19 2
  18    6   20 2
  19    7    8 1
  20    9   39 1
  21    9   40 1
  22    9   41 1
  23   10   11 ar
  24   10   15 ar
  25   11   12 ar
  26   11   42 1
  27   12   13 ar
  28   12   16 1
  29   13   14 ar
  30   13   43 1
  31   14   15 ar
  32   14   44 1
  33   15   21 1
  34   16   17 am
  35   16   45 1
  36   17   18 2
  37   17   22 1
  38   22   23 ar
  39   22   27 ar
  40   23   24 ar
  41   24   25 ar
  42   24   46 1
  43   25   26 ar
  44   25   28 1
  45   26   27 ar
  46   26   47 1
  47   27   48 1
  48   28   29 1
  49   29   30 1
  50   29   31 1
  51   29   49 1
  52   30   31 1
  53   30   50 1
  54   30   51 1
  55   31   52 1
  56   31   53 1

#	End of record

