#	Name: ASD03920008
#	Creating user name:	WinNT
#	Creation time:	15. 06. 2019 20:47

#	Modifying user name:	WinNT
#	Modification time:	15. 06. 2019 20:47

#	Program:	/corina/corina34_cracker 3.40 0067  02.08.2006

@<TRIPOS>MOLECULE
ASD03920008
  56   59    0    0    0
SMALL
NO_CHARGES


@<TRIPOS>ATOM
   1 C1            -0.0179     1.4718     0.0101 C.2     
   2 C2             0.0021    -0.0041     0.0020 C.ar    
   3 C3             1.2205    -0.6880    -0.0133 C.ar    
   4 C4             1.2349    -2.0650    -0.0209 C.ar    
   5 C5             0.0396    -2.7744    -0.0138 C.ar    
   6 C6            -1.1744    -2.0978     0.0010 C.ar    
   7 C7            -1.1973    -0.7210     0.0154 C.ar    
   8 O8             1.0266     2.0940     0.0035 O.2     
   9 N9            -1.1942     2.1298     0.0193 N.am    
  10 C10           -1.2140     3.5946     0.0273 C.3     
  11 C11           -2.5311     4.0901    -0.5734 C.3     
  12 C12           -3.7017     3.5596     0.2567 C.3     
  13 C13           -3.5761     4.0634     1.6959 C.3     
  14 C14           -2.2591     3.5679     2.2966 C.3     
  15 C15           -1.0884     4.0984     1.4665 C.3     
  16 N16           -4.6970     3.5555     2.4907 N.pl3   
  17 N17           -5.9021     4.2208     2.7570 N.2     
  18 N18           -6.6359     3.4547     3.4869 N.2     
  19 C19           -5.9843     2.3039     3.7263 C.2     
  20 C20           -4.7706     2.3560     3.1018 C.2     
  21 C21           -6.4954     1.1736     4.5248 C.2     
  22 O22           -5.8138     0.1779     4.6749 O.2     
  23 N23           -7.7178     1.2446     5.0879 N.am    
  24 C24           -8.3473     0.1964     5.9044 C.3     
  25 C25           -9.7461     0.7081     6.3079 C.3     
  26 C26          -10.0496     1.7789     5.2269 C.3     
  27 C27           -8.6426     2.3887     4.9925 C.3     
  28 O28            0.0580    -4.1314    -0.0217 O.3     
  29 C29           -1.2062    -4.7974    -0.0137 C.3     
  30 H30            2.1496    -0.1375    -0.0195 H       
  31 H31            2.1762    -2.5943    -0.0327 H       
  32 H32           -2.1010    -2.6526     0.0061 H       
  33 H33           -2.1409    -0.1960     0.0317 H       
  34 H34           -2.0275     1.6334     0.0205 H       
  35 H35           -0.3800     3.9725    -0.5640 H       
  36 H36           -2.5458     5.1800    -0.5674 H       
  37 H37           -2.6205     3.7311    -1.5987 H       
  38 H38           -4.6400     3.9126    -0.1712 H       
  39 H39           -3.6869     2.4697     0.2507 H       
  40 H40           -3.5909     5.1533     1.7019 H       
  41 H41           -2.1696     3.9269     3.3219 H       
  42 H42           -2.2443     2.4781     2.2906 H       
  43 H43           -0.1502     3.7454     1.8945 H       
  44 H44           -1.1032     5.1883     1.4725 H       
  45 H45           -4.0142     1.5851     3.0996 H       
  46 H46           -8.4416    -0.7203     5.3223 H       
  47 H47           -7.7486     0.0117     6.7963 H       
  48 H48          -10.4782    -0.0985     6.2680 H       
  49 H49           -9.7206     1.1584     7.3002 H       
  50 H50          -10.4357     1.3178     4.3178 H       
  51 H51          -10.7414     2.5313     5.6056 H       
  52 H52           -8.4136     3.1267     5.7613 H       
  53 H53           -8.5857     2.8409     4.0024 H       
  54 H54           -1.0488    -5.8759    -0.0214 H       
  55 H55           -1.7588    -4.5172     0.8831 H       
  56 H56           -1.7754    -4.5070    -0.8968 H       
@<TRIPOS>BOND
   1    1    2 1
   2    1    8 2
   3    1    9 am
   4    2    3 ar
   5    2    7 ar
   6    3    4 ar
   7    3   30 1
   8    4    5 ar
   9    4   31 1
  10    5    6 ar
  11    5   28 1
  12    6    7 ar
  13    6   32 1
  14    7   33 1
  15    9   10 1
  16    9   34 1
  17   10   11 1
  18   10   15 1
  19   10   35 1
  20   11   12 1
  21   11   36 1
  22   11   37 1
  23   12   13 1
  24   12   38 1
  25   12   39 1
  26   13   14 1
  27   13   16 1
  28   13   40 1
  29   14   15 1
  30   14   41 1
  31   14   42 1
  32   15   43 1
  33   15   44 1
  34   16   17 1
  35   16   20 1
  36   17   18 2
  37   18   19 1
  38   19   20 2
  39   19   21 1
  40   20   45 1
  41   21   22 2
  42   21   23 am
  43   23   24 1
  44   23   27 1
  45   24   25 1
  46   24   46 1
  47   24   47 1
  48   25   26 1
  49   25   48 1
  50   25   49 1
  51   26   27 1
  52   26   50 1
  53   26   51 1
  54   27   52 1
  55   27   53 1
  56   28   29 1
  57   29   54 1
  58   29   55 1
  59   29   56 1

#	End of record

