#	Name: ASD03080029
#	Creating user name:	WinNT
#	Creation time:	15. 06. 2019 20:26

#	Modifying user name:	WinNT
#	Modification time:	15. 06. 2019 20:26

#	Program:	/corina/corina34_cracker 3.40 0067  02.08.2006

@<TRIPOS>MOLECULE
ASD03080029
  26   28    0    0    0
SMALL
NO_CHARGES


@<TRIPOS>ATOM
   1 O1            -0.0144     1.2085     0.0087 O.3     
   2 N2             0.0021    -0.0041     0.0020 N.2     
   3 C3             1.2349    -0.4419    -0.0121 C.2     
   4 N4             2.0455     0.6368    -0.0141 N.2     
   5 C5             1.2410     1.6828    -0.0008 C.2     
   6 C6             3.0160    -2.1949    -0.0376 C.ar    
   7 C7             1.6630    -1.8633    -0.0234 C.ar    
   8 C8             0.7155    -2.8900    -0.0194 C.ar    
   9 C9             1.1659    -4.1993    -0.0299 C.ar    
  10 C10            2.5262    -4.4464    -0.0438 C.ar    
  11 N11            3.3972    -3.4557    -0.0468 N.ar    
  12 C12            1.6452     3.1049     0.0030 C.ar    
  13 C13            0.6759     4.1088     0.0182 C.ar    
  14 C14            1.0607     5.4358     0.0216 C.ar    
  15 C15            2.4059     5.7692     0.0095 C.ar    
  16 C16            3.3697     4.7776    -0.0060 C.ar    
  17 C17            2.9977     3.4487    -0.0028 C.ar    
  18 F18            0.1245     6.4096     0.0363 F       
  19 H19            3.7590    -1.4112    -0.0453 H       
  20 H20           -0.3414    -2.6681    -0.0081 H       
  21 H21            0.4622    -5.0186    -0.0269 H       
  22 H22            2.8812    -5.4664    -0.0520 H       
  23 H23           -0.3724     3.8490     0.0269 H       
  24 H24            2.7027     6.8076     0.0119 H       
  25 H25            4.4163     5.0438    -0.0161 H       
  26 H26            3.7521     2.6759    -0.0097 H       
@<TRIPOS>BOND
   1    1    2 1
   2    1    5 1
   3    2    3 2
   4    3    4 1
   5    3    7 1
   6    4    5 2
   7    5   12 1
   8    6    7 ar
   9    6   11 ar
  10    6   19 1
  11    7    8 ar
  12    8    9 ar
  13    8   20 1
  14    9   10 ar
  15    9   21 1
  16   10   11 ar
  17   10   22 1
  18   12   13 ar
  19   12   17 ar
  20   13   14 ar
  21   13   23 1
  22   14   15 ar
  23   14   18 1
  24   15   16 ar
  25   15   24 1
  26   16   17 ar
  27   16   25 1
  28   17   26 1

#	End of record

