#	Name: ASD07300984
#	Creating user name:	WinNT
#	Creation time:	15. 06. 2019 21:10

#	Modifying user name:	WinNT
#	Modification time:	15. 06. 2019 21:10

#	Program:	/corina/corina34_cracker 3.40 0067  02.08.2006

@<TRIPOS>MOLECULE
ASD07300984
  26   27    0    0    0
SMALL
NO_CHARGES


@<TRIPOS>ATOM
   1 C1            -0.0170     1.4617     0.0543 C.2     
   2 C2             0.0021    -0.0041     0.0017 C.2     
   3 C3             1.2491    -0.6586    -0.0563 C.2     
   4 C4             2.3848     0.0808    -0.0617 C.2     
   5 N5             2.3359     1.4255    -0.0126 N.pl3   
   6 N6             1.1208     2.1136     0.0457 N.2     
   7 O7            -1.0401    -0.6437     0.0084 O.2     
   8 C8             3.5313     2.1519    -0.0196 C.ar    
   9 C9             3.5033     3.5376    -0.1167 C.ar    
  10 C10            4.6851     4.2516    -0.1229 C.ar    
  11 C11            5.8959     3.5889    -0.0331 C.ar    
  12 C12            5.9273     2.2098     0.0632 C.ar    
  13 C13            4.7486     1.4899     0.0762 C.ar    
  14 C14            4.6559     5.7546    -0.2282 C.3     
  15 F15            4.5986     6.3109     1.0542 F       
  16 F16            5.8122     6.1992    -0.8781 F       
  17 F17            3.5296     6.1491    -0.9583 F       
  18 N18           -1.2260     2.1511     0.1067 N.pl3   
  19 H19            1.2990    -1.7368    -0.0957 H       
  20 H20            3.3429    -0.4157    -0.1057 H       
  21 H21            2.5584     4.0557    -0.1876 H       
  22 H22            6.8188     4.1497    -0.0385 H       
  23 H23            6.8743     1.6954     0.1325 H       
  24 H24            4.7737     0.4132     0.1563 H       
  25 H25           -2.0636     1.6619     0.1086 H       
  26 H26           -1.2304     3.1205     0.1413 H       
@<TRIPOS>BOND
   1    1    2 1
   2    1    6 2
   3    1   18 1
   4    2    3 1
   5    2    7 2
   6    3    4 2
   7    3   19 1
   8    4    5 1
   9    4   20 1
  10    5    6 1
  11    5    8 1
  12    8    9 ar
  13    8   13 ar
  14    9   10 ar
  15    9   21 1
  16   10   11 ar
  17   10   14 1
  18   11   12 ar
  19   11   22 1
  20   12   13 ar
  21   12   23 1
  22   13   24 1
  23   14   15 1
  24   14   16 1
  25   14   17 1
  26   18   25 1
  27   18   26 1

#	End of record

