#	Name: ASD01230188
#	Creating user name:	WinNT
#	Creation time:	15. 06. 2019 19:12

#	Modifying user name:	WinNT
#	Modification time:	15. 06. 2019 19:12

#	Program:	/corina/corina34_cracker 3.40 0067  02.08.2006

@<TRIPOS>MOLECULE
ASD01230188
  44   47    0    0    0
SMALL
NO_CHARGES


@<TRIPOS>ATOM
   1 S1            -0.0203     1.6432     0.0111 S.o2    
   2 N2             0.0021    -0.0041     0.0020 N.am    
   3 C3             1.0582    -0.7115     0.0766 C.2     
   4 N4             2.3239    -0.2014     0.2156 N.pl3   
   5 C5             2.5547     1.1284     0.7685 C.3     
   6 C6             1.7187     2.1517    -0.0028 C.3     
   7 C7             0.9691    -2.2282     0.0263 C.3     
   8 C8             2.0432    -2.7791     0.9676 C.3     
   9 C9             3.4382    -2.3754     0.5096 C.3     
  10 C10            3.4443    -1.0396    -0.2239 C.3     
  11 C11           -2.8989    -3.5016     1.3288 C.ar    
  12 C12           -2.4550    -3.8147     0.0456 C.ar    
  13 C13           -1.2053    -3.4013    -0.3695 C.ar    
  14 C14           -0.3942    -2.6772     0.4854 C.ar    
  15 C15           -0.8296    -2.3640     1.7604 C.ar    
  16 C16           -2.0774    -2.7723     2.1860 C.ar    
  17 C17           -4.2439    -3.9380     1.7786 C.ar    
  18 C18           -4.6878    -3.6250     3.0618 C.ar    
  19 C19           -5.9397    -4.0334     3.4750 C.ar    
  20 C20           -6.7531    -4.7527     2.6180 C.ar    
  21 C21           -6.3174    -5.0666     1.3433 C.ar    
  22 C22           -5.0699    -4.6574     0.9174 C.ar    
  23 O23           -0.6472     1.9881    -1.2166 O.2     
  24 O24           -0.6237     1.9749     1.2541 O.2     
  25 H25            2.2653     1.1405     1.8193 H       
  26 H26            3.6113     1.3809     0.6793 H       
  27 H27            2.0726     2.2083    -1.0322 H       
  28 H28            1.8152     3.1296     0.4690 H       
  29 H29            1.1525    -2.5769    -0.9900 H       
  30 H30            1.8709    -2.3915     1.9717 H       
  31 H31            1.9753    -3.8668     0.9892 H       
  32 H32            4.0887    -2.3026     1.3812 H       
  33 H33            3.8279    -3.1455    -0.1561 H       
  34 H34            3.3602    -1.2183    -1.2958 H       
  35 H35            4.3816    -0.5221    -0.0194 H       
  36 H36           -3.0876    -4.3800    -0.6227 H       
  37 H37           -0.8603    -3.6434    -1.3639 H       
  38 H38           -0.1921    -1.7987     2.4240 H       
  39 H39           -2.4167    -2.5266     3.1815 H       
  40 H40           -4.0532    -3.0640     3.7319 H       
  41 H41           -6.2848    -3.7913     4.4693 H       
  42 H42           -7.7319    -5.0707     2.9455 H       
  43 H43           -6.9564    -5.6287     0.6784 H       
  44 H44           -4.7327    -4.8986    -0.0798 H       
@<TRIPOS>BOND
   1    1    2 am
   2    1    6 1
   3    1   23 2
   4    1   24 2
   5    2    3 2
   6    3    4 1
   7    3    7 1
   8    4    5 1
   9    4   10 1
  10    5    6 1
  11    5   25 1
  12    5   26 1
  13    6   27 1
  14    6   28 1
  15    7    8 1
  16    7   14 1
  17    7   29 1
  18    8    9 1
  19    8   30 1
  20    8   31 1
  21    9   10 1
  22    9   32 1
  23    9   33 1
  24   10   34 1
  25   10   35 1
  26   11   12 ar
  27   11   16 ar
  28   11   17 1
  29   12   13 ar
  30   12   36 1
  31   13   14 ar
  32   13   37 1
  33   14   15 ar
  34   15   16 ar
  35   15   38 1
  36   16   39 1
  37   17   18 ar
  38   17   22 ar
  39   18   19 ar
  40   18   40 1
  41   19   20 ar
  42   19   41 1
  43   20   21 ar
  44   20   42 1
  45   21   22 ar
  46   21   43 1
  47   22   44 1

#	End of record

