#	Name: ASD05430063
#	Creating user name:	WinNT
#	Creation time:	15. 06. 2019 20:59

#	Modifying user name:	WinNT
#	Modification time:	15. 06. 2019 20:59

#	Program:	/corina/corina34_cracker 3.40 0067  02.08.2006

@<TRIPOS>MOLECULE
ASD05430063
  69   75    0    0    0
SMALL
NO_CHARGES


@<TRIPOS>ATOM
   1 C1             0.0236     2.6771    -1.1387 C.ar    
   2 C2            -0.1523     1.2979    -1.2431 C.ar    
   3 C3             0.9380     0.4449    -1.1318 C.ar    
   4 C4             2.1991     0.9575    -0.9175 C.ar    
   5 C5             2.3833     2.3400    -0.8116 C.ar    
   6 C6             1.2855     3.1987    -0.9238 C.ar    
   7 O7             4.6023     0.7094    -0.1099 O.3     
   8 C8             4.7619     2.0597    -0.3236 C.2     
   9 C9             3.7292     2.8895    -0.5823 C.2     
  10 C10            5.3578     0.1551     0.9716 C.3     
  11 C11            6.8627     0.3072     0.7185 C.3     
  12 N12            7.1355     1.6897     0.3340 N.pl3   
  13 C13            6.1697     2.5227    -0.2442 C.2     
  14 C14            8.3498     2.4910     0.4579 C.3     
  15 O15            8.1090     3.5969    -0.4386 O.3     
  16 N16            6.7046     3.6151    -0.6611 N.2     
  17 C17            8.5217     2.9809     1.8727 C.ar    
  18 C18            9.5737     1.6895     0.0100 C.3     
  19 C19            9.0692     4.2279     2.1102 C.ar    
  20 N20           -1.4334     0.7707    -1.4607 N.pl3   
  21 C21           -1.7863    -0.1434    -2.4192 C.2     
  22 C22           -3.1058    -0.3708    -2.2745 C.2     
  23 N23           -3.5511     0.3811    -1.2571 N.2     
  24 C24           -2.5575     1.0649    -0.7577 C.2     
  25 C25           -3.9382    -1.3078    -3.1113 C.3     
  26 C26           -0.7919     4.9107    -1.1364 C.3     
  27 O27           -1.0452     3.5093    -1.2538 O.3     
  28 O28           10.7573     2.4533     0.2502 O.3     
  29 C29            8.1267     2.1858     2.9315 C.ar    
  30 C30            8.2837     2.6359     4.2318 C.ar    
  31 C31            8.8367     3.8823     4.4698 C.ar    
  32 C32            9.2275     4.6788     3.4085 C.ar    
  33 F33            7.8968     1.8592     5.2672 F       
  34 Cl34           9.9211     6.2422     3.7058 Cl      
  35 C35            4.9907     0.8559     2.2543 C.2     
  36 C36            4.1773     0.3349     3.1934 C.2     
  37 C37            3.5201    -1.0178     3.0940 C.3     
  38 C38            3.5867    -1.4832     1.6341 C.3     
  39 C39            5.0188    -1.3330     1.1150 C.3     
  40 N40            5.3823     2.0633     2.6802 N.2     
  41 C41            4.8361     2.2913     3.8435 C.2     
  42 O42            4.0837     1.2333     4.1839 O.3     
  43 H43            0.7972    -0.6228    -1.2129 H       
  44 H44            3.0451     0.2918    -0.8309 H       
  45 H45            1.4233     4.2668    -0.8431 H       
  46 H46            3.8906     3.9567    -0.6211 H       
  47 H47            7.4127     0.0653     1.6280 H       
  48 H48            7.1679    -0.3629    -0.0852 H       
  49 H49            9.6228     0.7569     0.5721 H       
  50 H50            9.4937     1.4685    -1.0543 H       
  51 H51            9.3737     4.8503     1.2818 H       
  52 H52           -1.1318    -0.5946    -3.1503 H       
  53 H53           -2.6204     1.7550     0.0708 H       
  54 H54           -3.9352    -2.2993    -2.6585 H       
  55 H55           -4.9614    -0.9357    -3.1644 H       
  56 H56           -3.5202    -1.3660    -4.1162 H       
  57 H57           -1.7271     5.4595    -1.2472 H       
  58 H58           -0.3609     5.1213    -0.1576 H       
  59 H59           -0.0945     5.2204    -1.9147 H       
  60 H60           11.5739     2.0058    -0.0104 H       
  61 H61            7.6953     1.2134     2.7451 H       
  62 H62            8.9591     4.2344     5.4834 H       
  63 H63            4.0476    -1.7290     3.7297 H       
  64 H64            2.4789    -0.9433     3.4077 H       
  65 H65            3.2853    -2.5288     1.5720 H       
  66 H66            2.9156    -0.8748     1.0279 H       
  67 H67            5.1066    -1.8212     0.1444 H       
  68 H68            5.7108    -1.7960     1.8185 H       
  69 H69            4.9682     3.1850     4.4354 H       
@<TRIPOS>BOND
   1    1    2 ar
   2    1    6 ar
   3    1   27 1
   4    2    3 ar
   5    2   20 1
   6    3    4 ar
   7    3   43 1
   8    4    5 ar
   9    4   44 1
  10    5    6 ar
  11    5    9 1
  12    6   45 1
  13    7    8 1
  14    7   10 1
  15    8    9 2
  16    8   13 1
  17    9   46 1
  18   10   11 1
  19   10   35 1
  20   10   39 1
  21   11   12 1
  22   11   47 1
  23   11   48 1
  24   12   13 1
  25   12   14 1
  26   13   16 2
  27   14   15 1
  28   14   17 1
  29   14   18 1
  30   15   16 1
  31   17   19 ar
  32   17   29 ar
  33   18   28 1
  34   18   49 1
  35   18   50 1
  36   19   32 ar
  37   19   51 1
  38   20   21 1
  39   20   24 1
  40   21   22 2
  41   21   52 1
  42   22   23 1
  43   22   25 1
  44   23   24 2
  45   24   53 1
  46   25   54 1
  47   25   55 1
  48   25   56 1
  49   26   27 1
  50   26   57 1
  51   26   58 1
  52   26   59 1
  53   28   60 1
  54   29   30 ar
  55   29   61 1
  56   30   31 ar
  57   30   33 1
  58   31   32 ar
  59   31   62 1
  60   32   34 1
  61   35   36 2
  62   35   40 1
  63   36   37 1
  64   36   42 1
  65   37   38 1
  66   37   63 1
  67   37   64 1
  68   38   39 1
  69   38   65 1
  70   38   66 1
  71   39   67 1
  72   39   68 1
  73   40   41 2
  74   41   42 1
  75   41   69 1

#	End of record

