#	Name: ASD01510036
#	Creating user name:	WinNT
#	Creation time:	15. 06. 2019 19:21

#	Modifying user name:	WinNT
#	Modification time:	15. 06. 2019 19:21

#	Program:	/corina/corina34_cracker 3.40 0067  02.08.2006

@<TRIPOS>MOLECULE
ASD01510036
  60   62    0    0    0
SMALL
NO_CHARGES


@<TRIPOS>ATOM
   1 C1            -0.6660     1.9538     0.0318 C.3     
   2 C2            -0.6339     0.4301    -0.1033 C.3     
   3 O3            -1.9593    -0.0877     0.0280 O.3     
   4 C4            -2.1073    -1.4325    -0.0678 C.ar    
   5 N5            -1.0523    -2.2133    -0.2748 N.ar    
   6 C6            -1.1881    -3.5272    -0.3696 C.ar    
   7 N7            -2.3694    -4.1163    -0.2641 N.ar    
   8 C8            -3.4707    -3.4022    -0.0568 C.ar    
   9 C9            -3.3684    -2.0157     0.0551 C.ar    
  10 S10           -4.7986    -1.0242     0.3307 S.3     
  11 C11           -4.8240    -1.0067     2.0925 C.ar    
  12 N12           -5.7844    -0.3410     2.7177 N.ar    
  13 C13           -5.8352    -0.3065     4.0460 C.ar    
  14 N14           -6.8468     0.3942     4.6945 N.am    
  15 C15           -7.7221     1.1293     3.9803 C.2     
  16 O16           -7.5727     1.2561     2.7835 O.2     
  17 C17           -8.8863     1.7937     4.6689 C.3     
  18 C18           -4.8633    -0.9810     4.7789 C.ar    
  19 C19           -3.8705    -1.6691     4.0878 C.ar    
  20 N20           -3.8854    -1.6642     2.7581 N.ar    
  21 N21           -2.8788    -2.3574     4.7789 N.am    
  22 C22           -1.9823    -3.1044     4.1046 C.2     
  23 O23           -1.9823    -3.1038     2.8919 O.2     
  24 C24           -0.9798    -3.9405     4.8577 C.3     
  25 O25           -4.6766    -4.0136     0.0502 O.3     
  26 C26           -4.6951    -5.4374    -0.0701 C.3     
  27 C27           -6.1317    -5.9430     0.0764 C.3     
  28 N28           -0.0627    -4.3073    -0.5858 N.3     
  29 C29           -0.4161    -5.7323    -0.6614 C.3     
  30 C30            0.8435    -6.5498    -0.9597 C.3     
  31 O31            1.8251    -6.2880     0.0469 O.3     
  32 C32            2.1932    -4.9097     0.1476 C.3     
  33 C33            0.9472    -4.0756     0.4571 C.3     
  34 H34            0.3450     2.3487    -0.0683 H       
  35 H35           -1.2994     2.3745    -0.7491 H       
  36 H36           -1.0663     2.2236     1.0091 H       
  37 H37           -0.2336     0.1603    -1.0805 H       
  38 H38           -0.0005     0.0093     0.6776 H       
  39 H39           -6.9224     0.3538     5.6607 H       
  40 H40           -8.8547     1.5682     5.7349 H       
  41 H41           -8.8269     2.8723     4.5237 H       
  42 H42           -9.8193     1.4210     4.2462 H       
  43 H43           -4.8789    -0.9703     5.8588 H       
  44 H44           -2.8324    -2.2996     5.7460 H       
  45 H45           -1.3962    -4.9314     5.0389 H       
  46 H46           -0.0673    -4.0320     4.2686 H       
  47 H47           -0.7509    -3.4628     5.8103 H       
  48 H48           -4.3068    -5.7246    -1.0473 H       
  49 H49           -4.0740    -5.8761     0.7109 H       
  50 H50           -6.1457    -7.0291    -0.0153 H       
  51 H51           -6.5200    -5.6559     1.0536 H       
  52 H52           -6.7527    -5.5044    -0.7046 H       
  53 H53           -0.8413    -6.0528     0.2897 H       
  54 H54           -1.1457    -5.8847    -1.4567 H       
  55 H55            0.5968    -7.6115    -0.9601 H       
  56 H56            1.2384    -6.2669    -1.9354 H       
  57 H57            2.9225    -4.7853     0.9479 H       
  58 H58            2.6273    -4.5791    -0.7960 H       
  59 H59            1.2128    -3.0187     0.4782 H       
  60 H60            0.5439    -4.3696     1.4261 H       
@<TRIPOS>BOND
   1    1    2 1
   2    1   34 1
   3    1   35 1
   4    1   36 1
   5    2    3 1
   6    2   37 1
   7    2   38 1
   8    3    4 1
   9    4    5 ar
  10    4    9 ar
  11    5    6 ar
  12    6    7 ar
  13    6   28 1
  14    7    8 ar
  15    8    9 ar
  16    8   25 1
  17    9   10 1
  18   10   11 1
  19   11   12 ar
  20   11   20 ar
  21   12   13 ar
  22   13   14 1
  23   13   18 ar
  24   14   15 am
  25   14   39 1
  26   15   16 2
  27   15   17 1
  28   17   40 1
  29   17   41 1
  30   17   42 1
  31   18   19 ar
  32   18   43 1
  33   19   20 ar
  34   19   21 1
  35   21   22 am
  36   21   44 1
  37   22   23 2
  38   22   24 1
  39   24   45 1
  40   24   46 1
  41   24   47 1
  42   25   26 1
  43   26   27 1
  44   26   48 1
  45   26   49 1
  46   27   50 1
  47   27   51 1
  48   27   52 1
  49   28   29 1
  50   28   33 1
  51   29   30 1
  52   29   53 1
  53   29   54 1
  54   30   31 1
  55   30   55 1
  56   30   56 1
  57   31   32 1
  58   32   33 1
  59   32   57 1
  60   32   58 1
  61   33   59 1
  62   33   60 1

#	End of record

