#	Name: ASD03490099
#	Creating user name:	WinNT
#	Creation time:	15. 06. 2019 20:42

#	Modifying user name:	WinNT
#	Modification time:	15. 06. 2019 20:42

#	Program:	/corina/corina34_cracker 3.40 0067  02.08.2006

@<TRIPOS>MOLECULE
ASD03490099
  69   74    0    0    0
SMALL
NO_CHARGES


@<TRIPOS>ATOM
   1 C1            -0.0476     1.4683     0.0332 C.ar    
   2 C2            -0.0317     0.0032     0.0266 C.2     
   3 C3             1.2964     1.8795     0.0163 C.ar    
   4 C4            -1.0711     2.4209     0.0465 C.ar    
   5 C5            -1.2367    -0.9017     0.0394 C.3     
   6 N6             1.2103    -0.3723     0.0076 N.2     
   7 C7             1.5981     3.2337     0.0173 C.ar    
   8 O8             2.0526     0.7628     0.0009 O.3     
   9 C9            -0.7646     3.7497     0.0491 C.ar    
  10 C10           -1.2301    -1.7805    -1.2145 C.3     
  11 C11           -1.1912    -1.7969     1.2808 C.3     
  12 C12            0.5699     4.1681     0.0350 C.ar    
  13 C13           -2.4222    -2.7390    -1.1660 C.3     
  14 C14           -2.3844    -2.7549     1.2569 C.3     
  15 C15            0.8892     5.6167     0.0362 C.ar    
  16 N16           -2.3322    -3.5735     0.0389 N.3     
  17 C17            1.8075     6.1269     0.9479 C.ar    
  18 C18            0.2733     6.4686    -0.8809 C.ar    
  19 C19            2.1028     7.4894     0.9426 C.ar    
  20 C20            0.5695     7.8175    -0.8826 C.ar    
  21 C21           -0.7174     5.9154    -1.8726 C.3     
  22 C22            3.0778     8.0400     1.9077 C.2     
  23 C23            1.4755     8.3325     0.0230 C.ar    
  24 N24            3.3620     9.3575     1.9011 N.am    
  25 O25            3.6233     7.3046     2.7073 O.2     
  26 C26            4.1977     9.8975     2.8838 C.ar    
  27 C27            5.0574    10.9396     2.5682 C.ar    
  28 C28            4.1638     9.3945     4.1788 C.ar    
  29 C29            5.8853    11.4727     3.5465 C.ar    
  30 C30            4.9885     9.9276     5.1503 C.ar    
  31 N31            6.7519    12.5222     3.2331 N.3     
  32 C32            5.8505    10.9614     4.8380 C.ar    
  33 C33            7.5320    12.9307     4.4104 C.3     
  34 C34            6.0150    13.6651     2.6743 C.3     
  35 C35            8.5085    14.0395     4.0092 C.3     
  36 C36            7.0068    14.7665     2.2906 C.3     
  37 O37            7.7773    15.1287     3.4396 O.3     
  38 H38           -2.1037     2.1045     0.0544 H       
  39 H39           -2.1447    -0.2989     0.0569 H       
  40 H40            2.6275     3.5600     0.0047 H       
  41 H41           -1.5571     4.4833     0.0594 H       
  42 H42           -1.3055    -1.1505    -2.1008 H       
  43 H43           -0.3037    -2.3536    -1.2523 H       
  44 H44           -0.2642    -2.3702     1.2822 H       
  45 H45           -1.2388    -1.1787     2.1772 H       
  46 H46           -3.3487    -2.1653    -1.1421 H       
  47 H47           -2.4123    -3.3759    -2.0505 H       
  48 H48           -2.3471    -3.4034     2.1322 H       
  49 H49           -3.3111    -2.1812     1.2694 H       
  50 H50           -3.0545    -4.2781     0.0455 H       
  51 H51            2.2895     5.4704     1.6571 H       
  52 H52            0.0900     8.4724    -1.5950 H       
  53 H53           -1.7188     5.9499    -1.4436 H       
  54 H54           -0.6917     6.5130    -2.7838 H       
  55 H55           -0.4582     4.8831    -2.1078 H       
  56 H56            1.7026     9.3883     0.0175 H       
  57 H57            2.9869     9.9311     1.2146 H       
  58 H58            5.0828    11.3349     1.5635 H       
  59 H59            3.4915     8.5863     4.4261 H       
  60 H60            4.9597     9.5354     6.1561 H       
  61 H61            6.4946    11.3755     5.5996 H       
  62 H62            6.8581    13.3012     5.1829 H       
  63 H63            8.0894    12.0754     4.7924 H       
  64 H64            5.4651    13.3458     1.7890 H       
  65 H65            5.3169    14.0473     3.4191 H       
  66 H66            9.0488    14.3851     4.8906 H       
  67 H67            9.2164    13.6533     3.2759 H       
  68 H68            7.6710    14.4014     1.5072 H       
  69 H69            6.4609    15.6379     1.9289 H       
@<TRIPOS>BOND
   1    1    2 1
   2    1    3 ar
   3    1    4 ar
   4    2    5 1
   5    2    6 2
   6    3    7 ar
   7    3    8 1
   8    4    9 ar
   9    4   38 1
  10    5   10 1
  11    5   11 1
  12    5   39 1
  13    6    8 1
  14    7   12 ar
  15    7   40 1
  16    9   12 ar
  17    9   41 1
  18   10   13 1
  19   10   42 1
  20   10   43 1
  21   11   14 1
  22   11   44 1
  23   11   45 1
  24   12   15 1
  25   13   16 1
  26   13   46 1
  27   13   47 1
  28   14   16 1
  29   14   48 1
  30   14   49 1
  31   15   17 ar
  32   15   18 ar
  33   16   50 1
  34   17   19 ar
  35   17   51 1
  36   18   20 ar
  37   18   21 1
  38   19   22 1
  39   19   23 ar
  40   20   23 ar
  41   20   52 1
  42   21   53 1
  43   21   54 1
  44   21   55 1
  45   22   24 am
  46   22   25 2
  47   23   56 1
  48   24   26 1
  49   24   57 1
  50   26   27 ar
  51   26   28 ar
  52   27   29 ar
  53   27   58 1
  54   28   30 ar
  55   28   59 1
  56   29   31 1
  57   29   32 ar
  58   30   32 ar
  59   30   60 1
  60   31   33 1
  61   31   34 1
  62   32   61 1
  63   33   35 1
  64   33   62 1
  65   33   63 1
  66   34   36 1
  67   34   64 1
  68   34   65 1
  69   35   37 1
  70   35   66 1
  71   35   67 1
  72   36   37 1
  73   36   68 1
  74   36   69 1

#	End of record

