#	Name: ASD01920058
#	Creating user name:	WinNT
#	Creation time:	15. 06. 2019 20:11

#	Modifying user name:	WinNT
#	Modification time:	15. 06. 2019 20:11

#	Program:	/corina/corina34_cracker 3.40 0067  02.08.2006

@<TRIPOS>MOLECULE
ASD01920058
  35   37    0    0    0
SMALL
NO_CHARGES


@<TRIPOS>ATOM
   1 C1            -0.0054     1.3639     0.0481 C.ar    
   2 C2            -0.0759     0.1077    -0.5308 C.ar    
   3 C3             1.0462    -0.4163    -1.1570 C.ar    
   4 C4             2.2064     0.3441    -1.1797 C.ar    
   5 C5             2.2038     1.5995    -0.5767 C.ar    
   6 N6             1.1081     2.0634     0.0119 N.ar    
   7 C7             3.4343     2.4241    -0.5921 C.2     
   8 O8             4.4404     2.0045    -1.1294 O.2     
   9 N9             3.4381     3.6398    -0.0102 N.am    
  10 C10            4.6286     4.3714     0.0747 C.ar    
  11 C11            4.6021     5.7561    -0.0311 C.ar    
  12 C12            5.8357     3.7135     0.2703 C.ar    
  13 C13            7.0103     4.4365     0.3539 C.ar    
  14 C14            6.9832     5.8201     0.2424 C.ar    
  15 C15            5.7764     6.4776     0.0526 C.ar    
  16 O16            8.1391     6.5314     0.3247 O.3     
  17 Cl17           8.5198     3.6148     0.5991 Cl      
  18 C18            8.9223     6.6042    -0.7809 C.ar    
  19 C19           10.1593     7.2316    -0.7071 C.ar    
  20 C20           10.9492     7.2990    -1.8417 C.ar    
  21 C21           10.4707     6.7333    -3.0163 C.ar    
  22 C22            9.2298     6.1247    -3.0166 C.ar    
  23 N23            8.5025     6.0723    -1.9171 N.ar    
  24 Cl24          11.4204     6.7903    -4.4684 Cl      
  25 Cl25           0.9994    -1.9873    -1.8943 Cl      
  26 H26           -0.8781     1.7767     0.5323 H       
  27 H27           -0.9949    -0.4585    -0.4951 H       
  28 H28            3.0987    -0.0322    -1.6578 H       
  29 H29            2.6160     4.0078     0.3497 H       
  30 H30            3.6630     6.2685    -0.1791 H       
  31 H31            5.8564     2.6372     0.3574 H       
  32 H32            5.7560     7.5539    -0.0344 H       
  33 H33           10.5001     7.6614     0.2232 H       
  34 H34           11.9153     7.7809    -1.8143 H       
  35 H35            8.8525     5.6831    -3.9271 H       
@<TRIPOS>BOND
   1    1    2 ar
   2    1    6 ar
   3    1   26 1
   4    2    3 ar
   5    2   27 1
   6    3    4 ar
   7    3   25 1
   8    4    5 ar
   9    4   28 1
  10    5    6 ar
  11    5    7 1
  12    7    8 2
  13    7    9 am
  14    9   10 1
  15    9   29 1
  16   10   11 ar
  17   10   12 ar
  18   11   15 ar
  19   11   30 1
  20   12   13 ar
  21   12   31 1
  22   13   14 ar
  23   13   17 1
  24   14   15 ar
  25   14   16 1
  26   15   32 1
  27   16   18 1
  28   18   19 ar
  29   18   23 ar
  30   19   20 ar
  31   19   33 1
  32   20   21 ar
  33   20   34 1
  34   21   22 ar
  35   21   24 1
  36   22   23 ar
  37   22   35 1

#	End of record

