#	Name: ASD03331755
#	Creating user name:	WinNT
#	Creation time:	15. 06. 2019 20:39

#	Modifying user name:	WinNT
#	Modification time:	15. 06. 2019 20:39

#	Program:	/corina/corina34_cracker 3.40 0067  02.08.2006

@<TRIPOS>MOLECULE
ASD03331755
  59   62    0    0    0
SMALL
NO_CHARGES


@<TRIPOS>ATOM
   1 C1            -0.0169     1.3968     0.0097 C.ar    
   2 C2             0.0021    -0.0041     0.0020 C.ar    
   3 C3             1.2108    -0.6706    -0.0131 C.ar    
   4 C4             2.4093     0.0442    -0.0207 C.ar    
   5 C5             2.4040     1.4195    -0.0128 C.ar    
   6 C6            -1.0610     2.3533     0.0192 C.2     
   7 C7             1.1961     2.1121     0.0020 C.ar    
   8 N8             0.8823     3.4525     0.0122 N.pl3   
   9 C9            -0.4922     3.5873     0.0236 C.2     
  10 C10           -2.5384     2.0560     0.0231 C.3     
  11 C11           -3.0329     1.9471     1.4668 C.3     
  12 C12           -1.2235     4.8630     0.0331 C.2     
  13 O13           -2.4400     4.8667     0.0376 O.2     
  14 N14           -0.5461     6.0281     0.0367 N.am    
  15 S15            1.2405    -2.4324    -0.0223 S.3     
  16 C16            3.0280    -2.7165    -0.0411 C.1     
  17 C17           -1.2747     7.2991     0.0462 C.3     
  18 C18           -0.2769     8.4590     0.0486 C.3     
  19 C19           -1.0264     9.7663     0.0583 C.ar    
  20 C20           -1.3790    10.3683    -1.1357 C.ar    
  21 C21           -1.3651    10.3584     1.2613 C.ar    
  22 C22           -2.0527    11.5560     1.2738 C.ar    
  23 C23           -2.4038    12.1661     0.0762 C.ar    
  24 C24           -2.0658    11.5664    -1.1304 C.ar    
  25 N25           -3.0997    13.3771     0.0852 N.3     
  26 C26           -3.3667    13.8408    -1.2824 C.3     
  27 C27           -4.2526    15.0878    -1.2357 C.3     
  28 C28           -3.5423    16.1828    -0.4351 C.3     
  29 C29           -3.2325    15.6576     0.9694 C.3     
  30 C30           -2.3762    14.3941     0.8589 C.3     
  31 N31            4.1499    -2.8948    -0.0530 N.1     
  32 H32           -0.9241    -0.5595     0.0082 H       
  33 H33            3.3494    -0.4873    -0.0326 H       
  34 H34            3.3374     1.9628    -0.0185 H       
  35 H35            1.5214     4.1823     0.0100 H       
  36 H36           -3.0721     2.8597    -0.4842 H       
  37 H37           -2.7209     1.1147    -0.4955 H       
  38 H38           -2.4992     1.1434     1.9741 H       
  39 H39           -2.8503     2.8883     1.9854 H       
  40 H40           -4.1015     1.7320     1.4697 H       
  41 H41            0.4239     6.0252     0.0331 H       
  42 H42           -1.9045     7.3634    -0.8412 H       
  43 H43           -1.8979     7.3540     0.9388 H       
  44 H44            0.3528     8.3946     0.9360 H       
  45 H45            0.3463     8.4040    -0.8440 H       
  46 H46           -1.1165     9.9011    -2.0734 H       
  47 H47           -1.0918     9.8836     2.1920 H       
  48 H48           -2.3175    12.0176     2.2136 H       
  49 H49           -2.3403    12.0363    -2.0633 H       
  50 H50           -2.4246    14.0827    -1.7743 H       
  51 H51           -3.8757    13.0543    -1.8396 H       
  52 H52           -4.4377    15.4408    -2.2502 H       
  53 H53           -5.2004    14.8432    -0.7563 H       
  54 H54           -2.6130    16.4552    -0.9354 H       
  55 H55           -4.1880    17.0580    -0.3625 H       
  56 H56           -2.6888    16.4177     1.5305 H       
  57 H57           -4.1642    15.4220     1.4836 H       
  58 H58           -2.1657    14.0095     1.8569 H       
  59 H59           -1.4387    14.6334     0.3570 H       
@<TRIPOS>BOND
   1    1    2 ar
   2    1    7 ar
   3    1    6 1
   4    2    3 ar
   5    2   32 1
   6    3    4 ar
   7    3   15 1
   8    4    5 ar
   9    4   33 1
  10    5    7 ar
  11    5   34 1
  12    6    9 2
  13    6   10 1
  14    7    8 1
  15    8    9 1
  16    8   35 1
  17    9   12 1
  18   10   11 1
  19   10   36 1
  20   10   37 1
  21   11   38 1
  22   11   39 1
  23   11   40 1
  24   12   13 2
  25   12   14 am
  26   14   17 1
  27   14   41 1
  28   15   16 1
  29   16   31 3
  30   17   18 1
  31   17   42 1
  32   17   43 1
  33   18   19 1
  34   18   44 1
  35   18   45 1
  36   19   21 ar
  37   19   20 ar
  38   20   24 ar
  39   20   46 1
  40   21   22 ar
  41   21   47 1
  42   22   23 ar
  43   22   48 1
  44   23   24 ar
  45   23   25 1
  46   24   49 1
  47   25   26 1
  48   25   30 1
  49   26   27 1
  50   26   50 1
  51   26   51 1
  52   27   28 1
  53   27   52 1
  54   27   53 1
  55   28   29 1
  56   28   54 1
  57   28   55 1
  58   29   30 1
  59   29   56 1
  60   29   57 1
  61   30   58 1
  62   30   59 1

#	End of record

