#	Name: ASD00960265
#	Creating user name:	WinNT
#	Creation time:	15. 06. 2019 18:53

#	Modifying user name:	WinNT
#	Modification time:	15. 06. 2019 18:53

#	Program:	/corina/corina34_cracker 3.40 0067  02.08.2006

@<TRIPOS>MOLECULE
ASD00960265
  40   43    0    0    0
SMALL
NO_CHARGES


@<TRIPOS>ATOM
   1 C1            -0.0169     1.3972     0.0097 C.2     
   2 C2             0.0021    -0.0041     0.0020 C.2     
   3 N3             1.2791     1.8205    -0.0004 N.pl3   
   4 C4             2.1022     0.7261    -0.0006 C.2     
   5 C5             1.3612    -0.3913    -0.0068 C.2     
   6 N6             1.7978     3.1246     0.0043 N.2     
   7 C7             3.0657     3.2862    -0.2330 C.2     
   8 N8             3.8929     2.2250    -0.5259 N.pl3   
   9 C9             3.6067     0.8851     0.0171 C.3     
  10 N10            4.1075     0.7826     1.3943 N.3     
  11 C11           -1.1688    -0.9004     0.0034 C.2     
  12 O12           -1.1289    -2.2447    -0.0041 O.3     
  13 C13           -2.4001    -2.6919     0.0011 C.2     
  14 C14           -3.2042    -1.6119     0.0117 C.2     
  15 N15           -2.4262    -0.5202     0.0179 N.2     
  16 C16           -1.1704     2.2220     0.0199 C.2     
  17 O17           -2.2782     1.7187     0.0231 O.2     
  18 O18           -1.0395     3.5652     0.0261 O.3     
  19 C19           -2.2437     4.3344     0.0362 C.3     
  20 C20           -1.9023     5.8021     0.0419 C.ar    
  21 C21           -1.7519     6.4814    -1.1526 C.ar    
  22 C22           -1.4386     7.8278    -1.1474 C.ar    
  23 C23           -1.2762     8.4950     0.0524 C.ar    
  24 C24           -1.4274     7.8159     1.2469 C.ar    
  25 C25           -1.7450     6.4705     1.2417 C.ar    
  26 H26            1.7354    -1.4044    -0.0169 H       
  27 H27            3.4824     4.2820    -0.1998 H       
  28 H28            4.6681     2.3600    -1.0931 H       
  29 H29            4.0704     0.1219    -0.6079 H       
  30 H30            5.1045     0.9340     1.4288 H       
  31 H31            3.6230     1.4243     2.0039 H       
  32 H32           -2.7154    -3.7249    -0.0029 H       
  33 H33           -4.2841    -1.6232     0.0181 H       
  34 H34           -2.8312     4.1014    -0.8519 H       
  35 H35           -2.8219     4.0924     0.9280 H       
  36 H36           -1.8788     5.9602    -2.0899 H       
  37 H37           -1.3204     8.3583    -2.0806 H       
  38 H38           -1.0307     9.5467     0.0564 H       
  39 H39           -1.3002     8.3371     2.1842 H       
  40 H40           -1.8669     5.9409     2.1749 H       
@<TRIPOS>BOND
   1    1    2 2
   2    1    3 1
   3    1   16 1
   4    2   11 1
   5    2    5 1
   6    3    4 1
   7    3    6 1
   8    4    5 2
   9    4    9 1
  10    5   26 1
  11    6    7 2
  12    7    8 1
  13    7   27 1
  14    8    9 1
  15    8   28 1
  16    9   10 1
  17    9   29 1
  18   10   30 1
  19   10   31 1
  20   11   12 1
  21   11   15 2
  22   12   13 1
  23   13   14 2
  24   13   32 1
  25   14   15 1
  26   14   33 1
  27   16   17 2
  28   16   18 1
  29   18   19 1
  30   19   20 1
  31   19   34 1
  32   19   35 1
  33   20   21 ar
  34   20   25 ar
  35   21   22 ar
  36   21   36 1
  37   22   23 ar
  38   22   37 1
  39   23   24 ar
  40   23   38 1
  41   24   25 ar
  42   24   39 1
  43   25   40 1

#	End of record

