#	Name: ASD03091935
#	Creating user name:	WinNT
#	Creation time:	15. 06. 2019 20:31

#	Modifying user name:	WinNT
#	Modification time:	15. 06. 2019 20:31

#	Program:	/corina/corina34_cracker 3.40 0067  02.08.2006

@<TRIPOS>MOLECULE
ASD03091935
  50   53    0    0    0
SMALL
NO_CHARGES


@<TRIPOS>ATOM
   1 C1            -0.0169     1.3985     0.0097 C.ar    
   2 C2            -1.2302     2.0674     0.0172 C.ar    
   3 C3            -2.4111     1.3483     0.0075 C.ar    
   4 C4            -2.3928    -0.0370    -0.0097 C.ar    
   5 C5            -1.1929    -0.7184    -0.0120 C.ar    
   6 C6             0.0021    -0.0041     0.0020 C.ar    
   7 O7             1.1600     2.0714     0.0021 O.3     
   8 C8             2.2745     1.4626     0.6521 C.3     
   9 N9             2.4122     0.0611     0.2540 N.am    
  10 C10            1.3112    -0.6873     0.0165 C.2     
  11 C11           -3.6901    -0.8037    -0.0254 C.3     
  12 C12           -4.1788    -0.9350    -1.4449 C.ar    
  13 C13           -5.0059     0.0278    -1.9923 C.ar    
  14 C14           -3.8000    -2.0201    -2.2201 C.ar    
  15 C15           -4.2740    -2.0995    -3.5208 C.ar    
  16 C16           -5.1023    -1.1015    -3.9978 C.ar    
  17 N17           -5.4378    -0.0805    -3.2333 N.ar    
  18 O18            1.3964    -1.8844    -0.1786 O.2     
  19 C19            3.7444    -0.5318     0.1123 C.3     
  20 C20            4.1792    -1.1348     1.4495 C.3     
  21 C21            5.6159    -1.7048     1.3407 C.3     
  22 C22            6.0703    -1.6442     2.8245 C.3     
  23 C23            5.3581    -0.3725     3.3336 C.3     
  24 O24            4.2564    -0.1127     2.4558 O.3     
  25 Cl25          -1.2676     3.8029     0.0392 Cl      
  26 C26           -3.7298     2.0777     0.0161 C.3     
  27 C27           -5.6233    -1.1775    -5.4098 C.3     
  28 H28           -1.1808    -1.7983    -0.0245 H       
  29 H29            3.1833     2.0017     0.3846 H       
  30 H30            2.1323     1.5159     1.7315 H       
  31 H31           -3.5311    -1.7957     0.3974 H       
  32 H32           -4.4340    -0.2711     0.5672 H       
  33 H33           -5.3020     0.8785    -1.3964 H       
  34 H34           -3.1509    -2.7852    -1.8205 H       
  35 H35           -3.9990    -2.9306    -4.1533 H       
  36 H36            3.7153    -1.3137    -0.6466 H       
  37 H37            4.4550     0.2387    -0.1870 H       
  38 H38            3.4830    -1.9155     1.7559 H       
  39 H39            5.6045    -2.7316     0.9749 H       
  40 H40            6.2427    -1.0727     0.7117 H       
  41 H41            5.7303    -2.5241     3.3706 H       
  42 H42            7.1527    -1.5370     2.8947 H       
  43 H43            4.9928    -0.5342     4.3477 H       
  44 H44            6.0498     0.4698     3.3183 H       
  45 H45           -4.0472     2.2666    -1.0094 H       
  46 H46           -4.4788     1.4683     0.5219 H       
  47 H47           -3.6172     3.0257     0.5421 H       
  48 H48           -6.5694    -1.7187    -5.4194 H       
  49 H49           -5.7774    -0.1696    -5.7950 H       
  50 H50           -4.8999    -1.6993    -6.0364 H       
@<TRIPOS>BOND
   1    1    6 ar
   2    1    7 1
   3    1    2 ar
   4    2    3 ar
   5    2   25 1
   6    3    4 ar
   7    3   26 1
   8    4    5 ar
   9    4   11 1
  10    5    6 ar
  11    5   28 1
  12    6   10 1
  13    7    8 1
  14    8    9 1
  15    8   29 1
  16    8   30 1
  17    9   10 am
  18    9   19 1
  19   10   18 2
  20   11   12 1
  21   11   31 1
  22   11   32 1
  23   12   14 ar
  24   12   13 ar
  25   13   17 ar
  26   13   33 1
  27   14   15 ar
  28   14   34 1
  29   15   16 ar
  30   15   35 1
  31   16   17 ar
  32   16   27 1
  33   19   20 1
  34   19   36 1
  35   19   37 1
  36   20   24 1
  37   20   21 1
  38   20   38 1
  39   21   22 1
  40   21   39 1
  41   21   40 1
  42   22   23 1
  43   22   41 1
  44   22   42 1
  45   23   24 1
  46   23   43 1
  47   23   44 1
  48   26   45 1
  49   26   46 1
  50   26   47 1
  51   27   48 1
  52   27   49 1
  53   27   50 1

#	End of record

