#	Name: ASD01913208
#	Creating user name:	WinNT
#	Creation time:	15. 06. 2019 20:01

#	Modifying user name:	WinNT
#	Modification time:	15. 06. 2019 20:01

#	Program:	/corina/corina34_cracker 3.40 0067  02.08.2006

@<TRIPOS>MOLECULE
ASD01913208
  44   47    0    0    0
SMALL
NO_CHARGES


@<TRIPOS>ATOM
   1 C1             0.0759     1.2445     1.0382 C.ar    
   2 C2             0.0686    -0.1059     0.7407 C.ar    
   3 C3             1.2733    -0.7675     0.5844 C.ar    
   4 C4             2.4498    -0.0506     0.7324 C.ar    
   5 C5             2.3801     1.2976     1.0305 C.ar    
   6 N6             1.2139     1.8972     1.1720 N.ar    
   7 N7            -0.4557    -2.3950     0.2409 N.am    
   8 C8            -1.0542    -1.0881     0.5341 C.3     
   9 C9             1.0000    -2.2130     0.2682 C.3     
  10 C10           -1.1166    -3.5434    -0.0059 C.2     
  11 C11           -2.5869    -3.5905     0.1192 C.ar    
  12 C12           -3.2568    -4.8087     0.0148 C.ar    
  13 C13           -4.6442    -4.8469     0.1343 C.ar    
  14 C14           -5.3575    -3.6578     0.3589 C.ar    
  15 C15           -4.6802    -2.4512     0.4606 C.ar    
  16 C16           -3.3073    -2.4139     0.3482 C.ar    
  17 O17           -0.5019    -4.5405    -0.3317 O.2     
  18 C18           -5.3407    -6.0936     0.0279 C.1     
  19 C19           -5.9117    -7.1157    -0.0592 C.1     
  20 C20           -6.6082    -8.3624    -0.1655 C.ar    
  21 C21           -8.0003    -8.3920    -0.0445 C.ar    
  22 C22           -8.6574    -9.6040    -0.1497 C.ar    
  23 C23           -7.9050   -10.7498    -0.3725 C.ar    
  24 C24           -6.5303   -10.6495    -0.4823 C.ar    
  25 N25           -5.9264    -9.4829    -0.3841 N.ar    
  26 O26           -6.7082    -3.6891     0.4760 O.3     
  27 C27           -7.3687    -2.4426     0.7036 C.3     
  28 H28           -0.8596     1.7708     1.1577 H       
  29 H29            3.4068    -0.5377     0.6171 H       
  30 H30            3.2907     1.8663     1.1482 H       
  31 H31           -1.6591    -1.1533     1.4386 H       
  32 H32           -1.6743    -0.7694    -0.3038 H       
  33 H33            1.4222    -2.4648    -0.7046 H       
  34 H34            1.4375    -2.8488     1.0380 H       
  35 H35           -2.7023    -5.7192    -0.1583 H       
  36 H36           -5.2308    -1.5382     0.6330 H       
  37 H37           -2.7860    -1.4719     0.4332 H       
  38 H38           -8.5547    -7.4816     0.1289 H       
  39 H39           -9.7323    -9.6585    -0.0602 H       
  40 H40           -8.3894   -11.7112    -0.4588 H       
  41 H41           -5.9437   -11.5397    -0.6556 H       
  42 H42           -8.4434    -2.6090     0.7777 H       
  43 H43           -7.0044    -2.0026     1.6320 H       
  44 H44           -7.1622    -1.7653    -0.1250 H       
@<TRIPOS>BOND
   1    1    2 ar
   2    1    6 ar
   3    1   28 1
   4    2    3 ar
   5    2    8 1
   6    3    4 ar
   7    3    9 1
   8    4    5 ar
   9    4   29 1
  10    5    6 ar
  11    5   30 1
  12    7    8 1
  13    7    9 1
  14    7   10 am
  15    8   31 1
  16    8   32 1
  17    9   33 1
  18    9   34 1
  19   10   11 1
  20   10   17 2
  21   11   12 ar
  22   11   16 ar
  23   12   13 ar
  24   12   35 1
  25   13   14 ar
  26   13   18 1
  27   14   15 ar
  28   14   26 1
  29   15   16 ar
  30   15   36 1
  31   16   37 1
  32   18   19 3
  33   19   20 1
  34   20   21 ar
  35   20   25 ar
  36   21   22 ar
  37   21   38 1
  38   22   23 ar
  39   22   39 1
  40   23   24 ar
  41   23   40 1
  42   24   25 ar
  43   24   41 1
  44   26   27 1
  45   27   42 1
  46   27   43 1
  47   27   44 1

#	End of record

