#	Name: ASD01880045
#	Creating user name:	WinNT
#	Creation time:	15. 06. 2019 19:39

#	Modifying user name:	WinNT
#	Modification time:	15. 06. 2019 19:39

#	Program:	/corina/corina34_cracker 3.40 0067  02.08.2006

@<TRIPOS>MOLECULE
ASD01880045
  54   56    0    0    0
SMALL
NO_CHARGES


@<TRIPOS>ATOM
   1 S1            -0.0218     1.7577     0.0117 S.3     
   2 C2            -0.0131    -0.0041    -0.0078 C.ar    
   3 C3             0.1081    -0.7327     1.1760 C.ar    
   4 C4             0.1102    -2.1102     1.1175 C.ar    
   5 N5            -0.0001    -2.7387    -0.0381 N.ar    
   6 C6            -0.1167    -2.0858    -1.1795 C.ar    
   7 C7            -0.1331    -0.7074    -1.2070 C.ar    
   8 C8             1.4029     8.2087    -0.7162 C.ar    
   9 C9             0.8491     6.9489    -0.5397 C.ar    
  10 C10           -0.5219     6.8047    -0.3414 C.ar    
  11 C11           -1.3352     7.8997    -0.3182 C.ar    
  12 C12           -0.7935     9.1805    -0.4942 C.ar    
  13 C13            0.5914     9.3298    -0.6890 C.ar    
  14 C14           -1.6646    10.3580    -0.4701 C.2     
  15 C15           -3.1473    10.1941    -0.2556 C.3     
  16 C16           -3.8202    11.5680    -0.2742 C.3     
  17 C17           -3.6786    12.1865    -1.6664 C.3     
  18 C18           -5.3037    11.4139     0.0669 C.3     
  19 O19            1.1271    10.5638    -0.8599 O.3     
  20 O20           -1.1925    11.4652    -0.6229 O.2     
  21 C21            1.6710     2.1655    -0.2583 C.ar    
  22 C22            2.6296     1.1611    -0.3092 C.ar    
  23 C23            3.9554     1.4843    -0.5215 C.ar    
  24 C24            4.3292     2.8058    -0.6833 C.ar    
  25 C25            3.3775     3.8083    -0.6332 C.ar    
  26 C26            2.0496     3.4921    -0.4266 C.ar    
  27 C27            2.8871     8.3569    -0.9307 C.3     
  28 C28            1.0134     4.5850    -0.3727 C.3     
  29 O29            1.6471     5.8519    -0.5607 O.3     
  30 H30            0.1994    -0.2247     2.1247 H       
  31 H31            0.2035    -2.6823     2.0287 H       
  32 H32           -0.2045    -2.6385    -2.1033 H       
  33 H33           -0.2291    -0.1795    -2.1443 H       
  34 H34           -0.9439     5.8198    -0.2057 H       
  35 H35           -2.3974     7.7797    -0.1643 H       
  36 H36           -3.5631     9.5750    -1.0506 H       
  37 H37           -3.3243     9.7157     0.7077 H       
  38 H38           -3.3436    12.2160     0.4614 H       
  39 H39           -4.1580    13.1653    -1.6796 H       
  40 H40           -2.6217    12.2963    -1.9094 H       
  41 H41           -4.1552    11.5385    -2.4020 H       
  42 H42           -5.4046    10.9733     1.0588 H       
  43 H43           -5.7831    12.3927     0.0537 H       
  44 H44           -5.7803    10.7659    -0.6687 H       
  45 H45            1.3975    10.9927    -0.0365 H       
  46 H46            2.3383     0.1289    -0.1825 H       
  47 H47            4.7011     0.7041    -0.5608 H       
  48 H48            5.3668     3.0557    -0.8488 H       
  49 H49            3.6731     4.8394    -0.7597 H       
  50 H50            3.1064     8.3113    -1.9975 H       
  51 H51            3.2178     9.3161    -0.5325 H       
  52 H52            3.4107     7.5504    -0.4174 H       
  53 H53            0.2770     4.4266    -1.1606 H       
  54 H54            0.5169     4.5675     0.5975 H       
@<TRIPOS>BOND
   1    1    2 1
   2    1   21 1
   3    2    3 ar
   4    2    7 ar
   5    3    4 ar
   6    3   30 1
   7    4    5 ar
   8    4   31 1
   9    5    6 ar
  10    6    7 ar
  11    6   32 1
  12    7   33 1
  13    8    9 ar
  14    8   27 1
  15    8   13 ar
  16    9   10 ar
  17    9   29 1
  18   10   11 ar
  19   10   34 1
  20   11   12 ar
  21   11   35 1
  22   12   13 ar
  23   12   14 1
  24   13   19 1
  25   14   15 1
  26   14   20 2
  27   15   16 1
  28   15   36 1
  29   15   37 1
  30   16   17 1
  31   16   18 1
  32   16   38 1
  33   17   39 1
  34   17   40 1
  35   17   41 1
  36   18   42 1
  37   18   43 1
  38   18   44 1
  39   19   45 1
  40   21   22 ar
  41   21   26 ar
  42   22   23 ar
  43   22   46 1
  44   23   24 ar
  45   23   47 1
  46   24   25 ar
  47   24   48 1
  48   25   26 ar
  49   25   49 1
  50   26   28 1
  51   27   50 1
  52   27   51 1
  53   27   52 1
  54   28   29 1
  55   28   53 1
  56   28   54 1

#	End of record

