#	Name: ASD00310036
#	Creating user name:	WinNT
#	Creation time:	15. 06. 2019 18:33

#	Modifying user name:	WinNT
#	Modification time:	15. 06. 2019 18:33

#	Program:	/corina/corina34_cracker 3.40 0067  02.08.2006

@<TRIPOS>MOLECULE
ASD00310036
  14   14    0    0    0
SMALL
NO_CHARGES


@<TRIPOS>ATOM
   1 C1            -0.0187     1.5308     0.0105 C.3     
   2 C2             0.0021    -0.0041     0.0020 C.3     
   3 C3             0.6702    -0.4657    -1.2977 C.3     
   4 C4             1.9353     0.3185    -1.5164 C.2     
   5 C5             2.1812     1.4423    -0.8951 C.2     
   6 O6             1.3335     1.9972     0.0001 O.3     
   7 Br7            3.2186    -0.3467    -2.7356 Br      
   8 H8            -0.5404     1.8962    -0.8741 H       
   9 H9            -0.5234     1.8866     0.9087 H       
  10 H10            0.5704    -0.3690     0.8575 H       
  11 H11           -1.0178    -0.3861     0.0472 H       
  12 H12            0.9081    -1.5270    -1.2270 H       
  13 H13           -0.0090    -0.3003    -2.1340 H       
  14 H14            3.1087     1.9532    -1.1077 H       
@<TRIPOS>BOND
   1    1    2 1
   2    1    6 1
   3    1    8 1
   4    1    9 1
   5    2    3 1
   6    2   10 1
   7    2   11 1
   8    3    4 1
   9    3   12 1
  10    3   13 1
  11    4    5 2
  12    4    7 1
  13    5    6 1
  14    5   14 1

#	End of record

