#	Name: ASD03430260
#	Creating user name:	WinNT
#	Creation time:	15. 06. 2019 20:40

#	Modifying user name:	WinNT
#	Modification time:	15. 06. 2019 20:40

#	Program:	/corina/corina34_cracker 3.40 0067  02.08.2006

@<TRIPOS>MOLECULE
ASD03430260
  47   52    0    0    0
SMALL
NO_CHARGES


@<TRIPOS>ATOM
   1 C1            -0.3093     1.2508     0.7598 C.ar    
   2 C2            -0.2048    -0.1181     0.5636 C.ar    
   3 C3             1.0266    -0.6948     0.3375 C.ar    
   4 C4             2.1800     0.0843     0.3125 C.ar    
   5 C5             2.0711     1.4574     0.5047 C.ar    
   6 C6             0.8345     2.0396     0.7291 C.ar    
   7 O7             3.2891    -0.6815     0.1037 O.3     
   8 C8             1.4604    -2.1117     0.0734 C.3     
   9 C9             2.8932    -1.9496    -0.4530 C.3     
  10 C10            0.5682    -4.0293     0.9942 C.ar    
  11 C11            1.4099    -2.9642     1.3064 C.ar    
  12 C12            0.5755    -2.8021    -0.9245 C.2     
  13 N13            0.0981    -3.9058    -0.3154 N.am    
  14 O14            0.3368    -2.4378    -2.0565 O.2     
  15 C15            1.9928    -2.8733     2.5502 C.ar    
  16 C16            1.7464    -3.8453     3.5040 C.ar    
  17 C17            0.9135    -4.9075     3.2047 C.ar    
  18 C18            0.3265    -5.0030     1.9597 C.ar    
  19 C19           -0.8083    -4.8642    -0.9527 C.3     
  20 C20           -0.0103    -6.0104    -1.5186 C.ar    
  21 N21            0.3430    -7.0092    -0.7332 N.ar    
  22 C22            0.3383    -6.0058    -2.8567 C.ar    
  23 C23            1.0732    -7.0662    -3.3672 C.ar    
  24 C24            1.4306    -8.0946    -2.5093 C.ar    
  25 C25            1.0411    -8.0328    -1.1844 C.ar    
  26 O26           -1.5343     1.8050     0.9748 O.3     
  27 C27           -1.5549     3.1232     1.5333 C.3     
  28 C28           -0.5362     3.9826     0.7725 C.3     
  29 O29            0.7558     3.3853     0.9218 O.3     
  30 Br30          -0.1803    -4.5729    -3.9765 Br      
  31 H31           -1.0913    -0.7344     0.5883 H       
  32 H32            2.9573     2.0742     0.4794 H       
  33 H33            2.9036    -1.9142    -1.5424 H       
  34 H34            3.5337    -2.7509    -0.0846 H       
  35 H35            2.6433    -2.0428     2.7818 H       
  36 H36            2.2039    -3.7745     4.4797 H       
  37 H37            0.7219    -5.6664     3.9488 H       
  38 H38           -0.3228    -5.8358     1.7333 H       
  39 H39           -1.5145    -5.2429    -0.2138 H       
  40 H40           -1.3537    -4.3694    -1.7563 H       
  41 H41            1.3596    -7.0900    -4.4083 H       
  42 H42            2.0022    -8.9359    -2.8724 H       
  43 H43            1.3161    -8.8300    -0.5096 H       
  44 H44           -2.5511     3.5525     1.4260 H       
  45 H45           -1.2843     3.0798     2.5883 H       
  46 H46           -0.8029     4.0201    -0.2837 H       
  47 H47           -0.5251     4.9914     1.1853 H       
@<TRIPOS>BOND
   1    1    2 ar
   2    1    6 ar
   3    1   26 1
   4    2    3 ar
   5    2   31 1
   6    3    4 ar
   7    3    8 1
   8    4    5 ar
   9    4    7 1
  10    5    6 ar
  11    5   32 1
  12    6   29 1
  13    7    9 1
  14    8    9 1
  15    8   11 1
  16    8   12 1
  17    9   33 1
  18    9   34 1
  19   10   11 ar
  20   10   13 1
  21   10   18 ar
  22   11   15 ar
  23   12   13 am
  24   12   14 2
  25   13   19 1
  26   15   16 ar
  27   15   35 1
  28   16   17 ar
  29   16   36 1
  30   17   18 ar
  31   17   37 1
  32   18   38 1
  33   19   20 1
  34   19   39 1
  35   19   40 1
  36   20   21 ar
  37   20   22 ar
  38   21   25 ar
  39   22   23 ar
  40   22   30 1
  41   23   24 ar
  42   23   41 1
  43   24   25 ar
  44   24   42 1
  45   25   43 1
  46   26   27 1
  47   27   28 1
  48   27   44 1
  49   27   45 1
  50   28   29 1
  51   28   46 1
  52   28   47 1

#	End of record

