#	Name: ASD05740176
#	Creating user name:	WinNT
#	Creation time:	15. 06. 2019 21:03

#	Modifying user name:	WinNT
#	Modification time:	15. 06. 2019 21:03

#	Program:	/corina/corina34_cracker 3.40 0067  02.08.2006

@<TRIPOS>MOLECULE
ASD05740176
  58   62    0    0    0
SMALL
NO_CHARGES


@<TRIPOS>ATOM
   1 C1             0.9738    -0.9008     0.5161 C.3     
   2 N2             0.0192    -0.2241     1.4051 N.3     
   3 C3            -1.2811    -0.6984     1.1990 C.ar    
   4 C4            -2.3342    -0.1840     1.9440 C.ar    
   5 C5            -3.6171    -0.6521     1.7406 C.ar    
   6 C6            -3.8544    -1.6376     0.7914 C.ar    
   7 C7            -2.8013    -2.1523     0.0466 C.ar    
   8 C8            -1.5193    -1.6795     0.2453 C.ar    
   9 N9            -5.1559    -2.1127     0.5854 N.pl3   
  10 C10           -6.2309    -1.2529     0.6980 C.ar    
  11 N11           -5.9971     0.0406     0.8911 N.ar    
  12 N12           -7.4560    -1.7485     0.6040 N.ar    
  13 C13           -8.5118    -0.9518     0.7074 C.ar    
  14 C14           -8.3019     0.4288     0.9188 C.ar    
  15 C15           -6.9891     0.9055     1.0055 C.ar    
  16 N16           -9.7916    -1.4349     0.6140 N.am    
  17 C17          -10.8505    -0.6127     0.7207 C.2     
  18 C18          -10.6975     0.7725     0.9314 C.2     
  19 C19           -9.4560     1.3151     1.0341 C.2     
  20 C20          -10.0085    -2.8669     0.3943 C.3     
  21 O21          -11.9735    -1.0783     0.6325 O.2     
  22 C22            0.4173    -0.3731     2.8119 C.3     
  23 C23            1.8106     0.2281     3.0114 C.3     
  24 N24            2.7652    -0.4486     2.1224 N.3     
  25 C25            2.3671    -0.2996     0.7156 C.3     
  26 C26          -11.0094    -3.6931     2.5356 C.ar    
  27 C27           -9.9051    -3.5981     1.7080 C.ar    
  28 C28          -10.9138    -4.3650     3.7415 C.ar    
  29 C29           -9.7153    -4.9405     4.1183 C.ar    
  30 C30           -8.6117    -4.8448     3.2909 C.ar    
  31 C31           -8.7068    -4.1742     2.0860 C.ar    
  32 C32            4.1302     0.0493     2.3388 C.3     
  33 Cl33         -12.5127    -2.9637     2.0648 Cl      
  34 H34            0.9995    -1.9646     0.7524 H       
  35 H35            0.6643    -0.7655    -0.5203 H       
  36 H36           -2.1496     0.5818     2.6828 H       
  37 H37           -4.4361    -0.2521     2.3200 H       
  38 H38           -2.9858    -2.9191    -0.6911 H       
  39 H39           -0.7004    -2.0798    -0.3339 H       
  40 H40           -5.3021    -3.0457     0.3636 H       
  41 H41           -6.7916     1.9549     1.1670 H       
  42 H42          -11.5696     1.4045     1.0118 H       
  43 H43           -9.3263     2.3750     1.1959 H       
  44 H44          -10.9997    -3.0231    -0.0314 H       
  45 H45           -9.2536    -3.2475    -0.2937 H       
  46 H46           -0.2978     0.1469     3.4492 H       
  47 H47            0.4367    -1.4309     3.0742 H       
  48 H48            1.7849     1.2919     2.7751 H       
  49 H49            2.1200     0.0928     4.0477 H       
  50 H50            3.0822    -0.8196     0.0782 H       
  51 H51            2.3477     0.7582     0.4533 H       
  52 H52          -11.7756    -4.4392     4.3882 H       
  53 H53           -9.6405    -5.4646     5.0597 H       
  54 H54           -7.6753    -5.2948     3.5859 H       
  55 H55           -7.8445    -4.1001     1.4400 H       
  56 H56            4.4243    -0.1343     3.3721 H       
  57 H57            4.8163    -0.4682     1.6682 H       
  58 H58            4.1627     1.1199     2.1365 H       
@<TRIPOS>BOND
   1    1    2 1
   2    1   25 1
   3    1   34 1
   4    1   35 1
   5    2    3 1
   6    2   22 1
   7    3    4 ar
   8    3    8 ar
   9    4    5 ar
  10    4   36 1
  11    5    6 ar
  12    5   37 1
  13    6    7 ar
  14    6    9 1
  15    7    8 ar
  16    7   38 1
  17    8   39 1
  18    9   10 1
  19    9   40 1
  20   10   11 ar
  21   10   12 ar
  22   11   15 ar
  23   12   13 ar
  24   13   14 ar
  25   13   16 1
  26   14   15 ar
  27   14   19 1
  28   15   41 1
  29   16   17 am
  30   16   20 1
  31   17   18 1
  32   17   21 2
  33   18   19 2
  34   18   42 1
  35   19   43 1
  36   20   27 1
  37   20   44 1
  38   20   45 1
  39   22   23 1
  40   22   46 1
  41   22   47 1
  42   23   24 1
  43   23   48 1
  44   23   49 1
  45   24   25 1
  46   24   32 1
  47   25   50 1
  48   25   51 1
  49   26   27 ar
  50   26   28 ar
  51   26   33 1
  52   27   31 ar
  53   28   29 ar
  54   28   52 1
  55   29   30 ar
  56   29   53 1
  57   30   31 ar
  58   30   54 1
  59   31   55 1
  60   32   56 1
  61   32   57 1
  62   32   58 1

#	End of record

