#	Name: ASD01811636
#	Creating user name:	WinNT
#	Creation time:	15. 06. 2019 19:27

#	Modifying user name:	WinNT
#	Modification time:	15. 06. 2019 19:27

#	Program:	/corina/corina34_cracker 3.40 0067  02.08.2006

@<TRIPOS>MOLECULE
ASD01811636
  54   58    0    0    0
SMALL
NO_CHARGES


@<TRIPOS>ATOM
   1 C1            -0.0161     1.3330     0.0094 C.ar    
   2 N2             0.0021    -0.0041     0.0020 N.ar    
   3 C3             1.1298    -0.6711    -0.0123 C.ar    
   4 C4             2.3641    -0.0238    -0.0206 C.ar    
   5 C5             2.4179     1.3411    -0.0138 C.ar    
   6 C6             1.2049     2.0546     0.0016 C.ar    
   7 C7             1.1853     3.4598     0.0104 C.ar    
   8 C8             0.0025     4.1258     0.0262 C.ar    
   9 C9            -1.2195     3.4263     0.0342 C.ar    
  10 C10           -1.2244     2.0411     0.0306 C.ar    
  11 C11           -2.6701     1.6124     0.0492 C.3     
  12 N12           -3.4625     2.8474     0.0677 N.am    
  13 C13           -2.6205     3.8950     0.0510 C.2     
  14 C14           -4.9253     2.9253     0.0894 C.3     
  15 C15           -5.4142     3.6798    -1.1486 C.3     
  16 C16           -6.9419     3.7612    -1.1259 C.3     
  17 C17           -7.3945     4.5015     0.1343 C.3     
  18 C18           -6.9055     3.7470     1.3723 C.3     
  19 C19           -5.3779     3.6656     1.3496 C.3     
  20 C20            2.4809     4.2295     0.0026 C.3     
  21 C21            2.9624     4.3882    -1.4165 C.ar    
  22 C22            2.5774     5.4870    -2.1698 C.ar    
  23 C23            3.0447     5.5915    -3.4708 C.ar    
  24 C24            3.8729     4.6040    -3.9703 C.ar    
  25 N25            4.2186     3.5727    -3.2249 N.ar    
  26 C26            3.7977     3.4436    -1.9817 C.ar    
  27 C27            4.3865     4.7070    -5.3834 C.3     
  28 O28           -4.9915     2.9883    -2.3255 O.3     
  29 O29           -2.9627     5.0613     0.0619 O.2     
  30 H30            1.1021    -1.7508    -0.0175 H       
  31 H31            3.2770    -0.6007    -0.0321 H       
  32 H32            3.3658     1.8587    -0.0198 H       
  33 H33           -0.0013     5.2058     0.0332 H       
  34 H34           -2.9006     1.0325    -0.8445 H       
  35 H35           -2.8745     1.0224     0.9426 H       
  36 H36           -5.3428     1.9185     0.0898 H       
  37 H37           -4.9967     4.6866    -1.1489 H       
  38 H38           -7.2902     4.2987    -2.0078 H       
  39 H39           -7.3594     2.7543    -1.1255 H       
  40 H40           -6.9770     5.5083     0.1339 H       
  41 H41           -8.4828     4.5595     0.1505 H       
  42 H42           -7.2280     4.2744     2.2701 H       
  43 H43           -7.3231     2.7402     1.3727 H       
  44 H44           -5.0295     3.1282     2.2316 H       
  45 H45           -4.9603     4.6725     1.3492 H       
  46 H46            2.3218     5.2131     0.4445 H       
  47 H47            3.2288     3.6877     0.5816 H       
  48 H48            1.9287     6.2432    -1.7530 H       
  49 H49            2.7649     6.4336    -4.0864 H       
  50 H50            4.1060     2.5874    -1.4000 H       
  51 H51            5.3313     5.2504    -5.3879 H       
  52 H52            4.5408     3.7066    -5.7877 H       
  53 H53            3.6587     5.2385    -5.9966 H       
  54 H54           -5.2670     3.4112    -3.1504 H       
@<TRIPOS>BOND
   1    1    2 ar
   2    1    6 ar
   3    1   10 ar
   4    2    3 ar
   5    3    4 ar
   6    3   30 1
   7    4    5 ar
   8    4   31 1
   9    5    6 ar
  10    5   32 1
  11    6    7 ar
  12    7    8 ar
  13    7   20 1
  14    8    9 ar
  15    8   33 1
  16    9   13 1
  17    9   10 ar
  18   10   11 1
  19   11   12 1
  20   11   34 1
  21   11   35 1
  22   12   13 am
  23   12   14 1
  24   13   29 2
  25   14   15 1
  26   14   19 1
  27   14   36 1
  28   15   16 1
  29   15   28 1
  30   15   37 1
  31   16   17 1
  32   16   38 1
  33   16   39 1
  34   17   18 1
  35   17   40 1
  36   17   41 1
  37   18   19 1
  38   18   42 1
  39   18   43 1
  40   19   44 1
  41   19   45 1
  42   20   21 1
  43   20   46 1
  44   20   47 1
  45   21   22 ar
  46   21   26 ar
  47   22   23 ar
  48   22   48 1
  49   23   24 ar
  50   23   49 1
  51   24   25 ar
  52   24   27 1
  53   25   26 ar
  54   26   50 1
  55   27   51 1
  56   27   52 1
  57   27   53 1
  58   28   54 1

#	End of record

