#	Name: ASD01190202
#	Creating user name:	WinNT
#	Creation time:	15. 06. 2019 19:08

#	Modifying user name:	WinNT
#	Modification time:	15. 06. 2019 19:08

#	Program:	/corina/corina34_cracker 3.40 0067  02.08.2006

@<TRIPOS>MOLECULE
ASD01190202
  64   69    0    0    0
SMALL
NO_CHARGES


@<TRIPOS>ATOM
   1 C1             1.3891     0.5899     1.4776 C.3     
   2 C2             1.1486    -0.8444     1.0023 C.3     
   3 C3            -0.2553    -1.2901     1.4161 C.3     
   4 O4             2.7385     0.9656     1.1946 O.3     
   5 O5             1.2661    -0.9006    -0.4208 O.3     
   6 N6            -0.4425    -2.7006     1.0671 N.pl3   
   7 C7            -1.0233    -3.1551    -0.0853 C.2     
   8 C8            -1.0386    -4.4980    -0.0919 C.2     
   9 C9            -0.4170    -4.9401     1.1581 C.ar    
  10 C10           -0.1491    -6.1940     1.7156 C.ar    
  11 C11            0.4591    -6.2818     2.9324 C.ar    
  12 C12            0.8183    -5.1218     3.6305 C.ar    
  13 C13            0.5583    -3.8671     3.0897 C.ar    
  14 C14           -0.0546    -3.7675     1.8478 C.ar    
  15 C15           -1.5913    -5.3824    -1.1797 C.3     
  16 C16           -2.1758    -4.5139    -2.2954 C.3     
  17 O17           -0.5436    -6.1971    -1.7095 O.3     
  18 N18           -5.5065    -8.8777     0.8363 N.pl3   
  19 N19           -5.0038   -10.0804     0.3290 N.2     
  20 C20           -3.9117    -9.8596    -0.3466 C.2     
  21 C21           -3.6429    -8.4257    -0.3051 C.ar    
  22 C22           -2.6375    -7.6090    -0.8345 C.ar    
  23 C23           -2.6731    -6.2632    -0.6097 C.ar    
  24 C24           -3.6972    -5.6976     0.1401 C.ar    
  25 C25           -4.6896    -6.4745     0.6676 C.ar    
  26 C26           -4.6799    -7.8503     0.4546 C.ar    
  27 C27           -6.6697    -8.7425     1.6053 C.ar    
  28 C28           -7.7650    -9.5598     1.3588 C.ar    
  29 C29           -8.9107    -9.4249     2.1179 C.ar    
  30 C30           -8.9678    -8.4755     3.1245 C.ar    
  31 C31           -7.8766    -7.6594     3.3719 C.ar    
  32 C32           -6.7269    -7.7949     2.6188 C.ar    
  33 F33          -10.0897    -8.3448     3.8657 F       
  34 F34           -1.1715    -3.6963    -2.8245 F       
  35 F35           -2.6890    -5.3350    -3.3052 F       
  36 F36           -3.2015    -3.7163    -1.7767 F       
  37 N37            2.4539    -4.7418     6.8965 N.2     
  38 N38            1.8808    -4.1970     5.7403 N.pl3   
  39 C39            1.4772    -5.2318     4.9501 C.2     
  40 C40            1.7938    -6.3898     5.6033 C.2     
  41 C41            2.4004    -6.0469     6.8117 C.2     
  42 H42            0.7078     1.2639     0.9583 H       
  43 H43            1.2125     0.6512     2.5514 H       
  44 H44            1.8878    -1.5057     1.4543 H       
  45 H45           -0.3744    -1.1631     2.4921 H       
  46 H46           -0.9971    -0.6853     0.8945 H       
  47 H47            2.9622     1.8652     1.4696 H       
  48 H48            0.6374    -0.3353    -0.8900 H       
  49 H49           -1.4122    -2.5268    -0.8730 H       
  50 H50           -0.4242    -7.0922     1.1829 H       
  51 H51            0.6649    -7.2516     3.3609 H       
  52 H52            0.8363    -2.9747     3.6308 H       
  53 H53           -0.1263    -6.7752    -1.0563 H       
  54 H54           -3.3121   -10.6051    -0.8477 H       
  55 H55           -1.8377    -8.0411    -1.4176 H       
  56 H56           -3.7087    -4.6309     0.3083 H       
  57 H57           -5.4796    -6.0225     1.2489 H       
  58 H58           -7.7210   -10.3001     0.5737 H       
  59 H59           -9.7629   -10.0601     1.9263 H       
  60 H60           -7.9232    -6.9194     4.1571 H       
  61 H61           -5.8744    -7.1617     2.8153 H       
  62 H62            1.7875    -3.2528     5.5384 H       
  63 H63            1.6070    -7.3923     5.2474 H       
  64 H64            2.7657    -6.7421     7.5531 H       
@<TRIPOS>BOND
   1    1    2 1
   2    1    4 1
   3    1   42 1
   4    1   43 1
   5    2    3 1
   6    2    5 1
   7    2   44 1
   8    3    6 1
   9    3   45 1
  10    3   46 1
  11    4   47 1
  12    5   48 1
  13    6    7 1
  14    6   14 1
  15    7    8 2
  16    7   49 1
  17    8    9 1
  18    8   15 1
  19    9   10 ar
  20    9   14 ar
  21   10   11 ar
  22   10   50 1
  23   11   12 ar
  24   11   51 1
  25   12   13 ar
  26   12   39 1
  27   13   14 ar
  28   13   52 1
  29   15   16 1
  30   15   17 1
  31   15   23 1
  32   16   34 1
  33   16   35 1
  34   16   36 1
  35   17   53 1
  36   18   19 1
  37   18   26 1
  38   18   27 1
  39   19   20 2
  40   20   21 1
  41   20   54 1
  42   21   22 ar
  43   21   26 ar
  44   22   23 ar
  45   22   55 1
  46   23   24 ar
  47   24   25 ar
  48   24   56 1
  49   25   26 ar
  50   25   57 1
  51   27   28 ar
  52   27   32 ar
  53   28   29 ar
  54   28   58 1
  55   29   30 ar
  56   29   59 1
  57   30   31 ar
  58   30   33 1
  59   31   32 ar
  60   31   60 1
  61   32   61 1
  62   37   38 1
  63   37   41 2
  64   38   39 1
  65   38   62 1
  66   39   40 2
  67   40   41 1
  68   40   63 1
  69   41   64 1

#	End of record

