#	Name: ASD01680024
#	Creating user name:	WinNT
#	Creation time:	15. 06. 2019 19:22

#	Modifying user name:	WinNT
#	Modification time:	15. 06. 2019 19:22

#	Program:	/corina/corina34_cracker 3.40 0067  02.08.2006

@<TRIPOS>MOLECULE
ASD01680024
  88   92    0    0    0
SMALL
NO_CHARGES


@<TRIPOS>ATOM
   1 N1            -0.1039     1.1322     0.1559 N.am    
   2 C2            -0.1172    -0.3334    -0.0028 C.3     
   3 C3             1.2582    -0.8028     0.5334 C.3     
   4 C4             2.1881     0.3412     0.0497 C.3     
   5 C5             1.2926     1.5916     0.1766 C.3     
   6 C6            -1.1919     1.9210     0.2591 C.2     
   7 O7            -2.3022     1.4447     0.1295 O.2     
   8 O8            -1.0484     3.2368     0.5056 O.3     
   9 C9            -1.2488    -0.9482     0.8232 C.3     
  10 N10           -1.1344    -0.5045     2.2147 N.pl3   
  11 C11           -2.1121    -0.8549     3.1385 C.ar    
  12 C12           -3.1969    -1.6272     2.7350 C.ar    
  13 C13           -4.1623    -1.9685     3.6646 C.ar    
  14 C14           -4.0102    -1.5244     4.9717 C.ar    
  15 C15           -2.9087    -0.7613     5.3027 C.ar    
  16 N16           -2.0001    -0.4552     4.3958 N.ar    
  17 O17            3.3346     0.4525     0.8953 O.3     
  18 C18            4.5037     0.9336     0.2290 C.3     
  19 C19            5.6450     1.0109     1.2101 C.2     
  20 N20            6.8556     1.4411     0.8029 N.am    
  21 O21            5.4741     0.6860     2.3660 O.2     
  22 C22            7.9652     1.5163     1.7567 C.3     
  23 C23            9.2168     2.0314     1.0433 C.3     
  24 N24            8.9174     3.3099     0.3937 N.am    
  25 C25            9.6392     3.7096    -0.6720 C.2     
  26 O26           10.5046     2.9894    -1.1229 O.2     
  27 C27            9.3711     5.0515    -1.3032 C.3     
  28 C28           10.2356     5.2221    -2.5695 C.3     
  29 C29            9.3012     4.7932    -3.7279 C.3     
  30 C30            7.9275     5.3553    -3.2850 C.3     
  31 C31            7.9036     5.1362    -1.7582 C.3     
  32 C32            9.6723     6.1534    -0.3202 C.ar    
  33 C33            9.6203     7.4741    -0.7251 C.ar    
  34 C34            9.8967     8.4848     0.1765 C.ar    
  35 C35           10.2245     8.1749     1.4832 C.ar    
  36 C36           10.2755     6.8542     1.8883 C.ar    
  37 C37            9.9950     5.8437     0.9877 C.ar    
  38 C38           10.3234     2.2254     2.0477 C.2     
  39 O39           10.8119     3.3193     2.2048 O.2     
  40 O40           10.7665     1.1829     2.7679 O.3     
  41 C41           -2.2637     4.0254     0.6039 C.3     
  42 C42           -1.9083     5.4635     0.8810 C.ar    
  43 C43           -1.7006     6.3387    -0.1687 C.ar    
  44 C44           -1.3746     7.6577     0.0854 C.ar    
  45 C45           -1.2568     8.1018     1.3892 C.ar    
  46 C46           -1.4654     7.2268     2.4389 C.ar    
  47 C47           -1.7956     5.9087     2.1848 C.ar    
  48 H48           -0.2256    -0.6001    -1.0541 H       
  49 H49            1.2520    -0.8675     1.6215 H       
  50 H50            1.5466    -1.7552     0.0886 H       
  51 H51            2.4859     0.1838    -0.9870 H       
  52 H52            1.4740     2.2642    -0.6617 H       
  53 H53            1.5008     2.1028     1.1165 H       
  54 H54           -2.2091    -0.6293     0.4180 H       
  55 H55           -1.1798    -2.0352     0.7816 H       
  56 H56           -0.3764     0.0338     2.4914 H       
  57 H57           -3.2839    -1.9554     1.7098 H       
  58 H58           -5.0155    -2.5666     3.3804 H       
  59 H59           -4.7465    -1.7733     5.7215 H       
  60 H60           -2.7866    -0.4139     6.3179 H       
  61 H61            4.7663     0.2531    -0.5809 H       
  62 H62            4.3073     1.9252    -0.1788 H       
  63 H63            6.9923     1.7010    -0.1215 H       
  64 H64            7.7026     2.1968     2.5666 H       
  65 H65            8.1615     0.5247     2.1645 H       
  66 H66            9.5310     1.3068     0.2920 H       
  67 H67            8.1996     3.8686     0.7304 H       
  68 H68           10.5373     6.2628    -2.6880 H       
  69 H69           11.1101     4.5731    -2.5246 H       
  70 H70            9.6186     5.2451    -4.6677 H       
  71 H71            9.2649     3.7072    -3.8131 H       
  72 H72            7.8565     6.4175    -3.5191 H       
  73 H73            7.1177     4.8035    -3.7623 H       
  74 H74            7.3853     4.2067    -1.5224 H       
  75 H75            7.4086     5.9748    -1.2683 H       
  76 H76            9.3642     7.7163    -1.7460 H       
  77 H77            9.8568     9.5166    -0.1400 H       
  78 H78           10.4411     8.9645     2.1874 H       
  79 H79           10.5320     6.6120     2.9091 H       
  80 H80           10.0313     4.8120     1.3052 H       
  81 H81           11.4778     1.3564     3.3997 H       
  82 H82           -2.8150     3.9616    -0.3342 H       
  83 H83           -2.8816     3.6410     1.4154 H       
  84 H84           -1.7926     5.9917    -1.1873 H       
  85 H85           -1.2116     8.3413    -0.7346 H       
  86 H86           -1.0014     9.1322     1.5878 H       
  87 H87           -1.3730     7.5736     3.4575 H       
  88 H88           -1.9623     5.2260     3.0049 H       
@<TRIPOS>BOND
   1    1    2 1
   2    1    5 1
   3    1    6 am
   4    2    3 1
   5    2    9 1
   6    2   48 1
   7    3    4 1
   8    3   49 1
   9    3   50 1
  10    4    5 1
  11    4   17 1
  12    4   51 1
  13    5   52 1
  14    5   53 1
  15    6    7 2
  16    6    8 1
  17    8   41 1
  18    9   10 1
  19    9   54 1
  20    9   55 1
  21   10   11 1
  22   10   56 1
  23   11   12 ar
  24   11   16 ar
  25   12   13 ar
  26   12   57 1
  27   13   14 ar
  28   13   58 1
  29   14   15 ar
  30   14   59 1
  31   15   16 ar
  32   15   60 1
  33   17   18 1
  34   18   19 1
  35   18   61 1
  36   18   62 1
  37   19   20 am
  38   19   21 2
  39   20   22 1
  40   20   63 1
  41   22   23 1
  42   22   64 1
  43   22   65 1
  44   23   24 1
  45   23   38 1
  46   23   66 1
  47   24   25 am
  48   24   67 1
  49   25   26 2
  50   25   27 1
  51   27   28 1
  52   27   31 1
  53   27   32 1
  54   28   29 1
  55   28   68 1
  56   28   69 1
  57   29   30 1
  58   29   70 1
  59   29   71 1
  60   30   31 1
  61   30   72 1
  62   30   73 1
  63   31   74 1
  64   31   75 1
  65   32   33 ar
  66   32   37 ar
  67   33   34 ar
  68   33   76 1
  69   34   35 ar
  70   34   77 1
  71   35   36 ar
  72   35   78 1
  73   36   37 ar
  74   36   79 1
  75   37   80 1
  76   38   39 2
  77   38   40 1
  78   40   81 1
  79   41   42 1
  80   41   82 1
  81   41   83 1
  82   42   43 ar
  83   42   47 ar
  84   43   44 ar
  85   43   84 1
  86   44   45 ar
  87   44   85 1
  88   45   46 ar
  89   45   86 1
  90   46   47 ar
  91   46   87 1
  92   47   88 1

#	End of record

