#	Name: ASD01560032
#	Creating user name:	WinNT
#	Creation time:	15. 06. 2019 19:22

#	Modifying user name:	WinNT
#	Modification time:	15. 06. 2019 19:22

#	Program:	/corina/corina34_cracker 3.40 0067  02.08.2006

@<TRIPOS>MOLECULE
ASD01560032
  41   44    0    0    0
SMALL
NO_CHARGES


@<TRIPOS>ATOM
   1 C1            -0.0184     1.5028     0.0103 C.3     
   2 C2             0.0021    -0.0041     0.0020 C.ar    
   3 C3             0.0229    -0.6995     1.1975 C.ar    
   4 C4             0.0416    -2.0796     1.1957 C.ar    
   5 C5             0.0396    -2.7722    -0.0132 C.ar    
   6 C6             0.0186    -2.0667    -1.2144 C.ar    
   7 C7            -0.0057    -0.6867    -1.2010 C.ar    
   8 C8             0.0602    -4.2563    -0.0214 C.2     
   9 C9             0.0605    -5.0699    -1.1664 C.2     
  10 C10            0.0829    -6.3811    -0.7443 C.2     
  11 N11            0.0959    -6.3668     0.6282 N.am    
  12 N12            0.0871    -5.0307     1.0438 N.2     
  13 C13            0.1187    -7.5317     1.3058 C.2     
  14 O14            0.1301    -7.5317     2.5214 O.2     
  15 N15            0.1284    -8.6972     0.6276 N.am    
  16 C16            0.1151    -8.6963    -0.7461 C.2     
  17 N17            0.0925    -7.5622    -1.4107 N.2     
  18 S18            0.1286   -10.2247    -1.6228 S.3     
  19 C19            0.1033    -9.6107    -3.3252 C.3     
  20 C20            0.1108   -10.7767    -4.2799 C.2     
  21 N21            1.2628   -11.4869    -4.4898 N.am    
  22 C22            1.2797   -12.5294    -5.3401 C.2     
  23 O23            2.3136   -13.1458    -5.5119 O.2     
  24 N24            0.1685   -12.9000    -6.0029 N.am    
  25 C25           -0.9861   -12.2270    -5.8243 C.2     
  26 O26           -1.9917   -12.5617    -6.4241 O.2     
  27 C27           -1.0199   -11.1300    -4.9285 C.2     
  28 Cl28          -2.4917   -10.2444    -4.6772 Cl      
  29 H29            1.0042     1.8801     0.0026 H       
  30 H30           -0.5455     1.8639    -0.8728 H       
  31 H31           -0.5286     1.8543     0.9071 H       
  32 H32            0.0248    -0.1616     2.1340 H       
  33 H33            0.0582    -2.6216     2.1297 H       
  34 H34            0.0170    -2.5986    -2.1543 H       
  35 H35           -0.0220    -0.1388    -2.1315 H       
  36 H36            0.0459    -4.7295    -2.1912 H       
  37 H37            0.1451    -9.5381     1.1108 H       
  38 H38           -0.7968    -9.0169    -3.4840 H       
  39 H39            0.9829    -8.9914    -3.5012 H       
  40 H40            2.0742   -11.2357    -4.0214 H       
  41 H41            0.1985   -13.6544    -6.6120 H       
@<TRIPOS>BOND
   1    1    2 1
   2    1   29 1
   3    1   30 1
   4    1   31 1
   5    2    3 ar
   6    2    7 ar
   7    3    4 ar
   8    3   32 1
   9    4    5 ar
  10    4   33 1
  11    5    6 ar
  12    5    8 1
  13    6    7 ar
  14    6   34 1
  15    7   35 1
  16    8    9 1
  17    8   12 2
  18    9   10 2
  19    9   36 1
  20   10   11 1
  21   10   17 1
  22   11   12 1
  23   11   13 am
  24   13   14 2
  25   13   15 am
  26   15   16 1
  27   15   37 1
  28   16   17 2
  29   16   18 1
  30   18   19 1
  31   19   20 1
  32   19   38 1
  33   19   39 1
  34   20   21 1
  35   20   27 2
  36   21   22 am
  37   21   40 1
  38   22   23 2
  39   22   24 am
  40   24   25 am
  41   24   41 1
  42   25   26 2
  43   25   27 1
  44   27   28 1

#	End of record

