#	Name: ASD05380287
#	Creating user name:	WinNT
#	Creation time:	15. 06. 2019 20:59

#	Modifying user name:	WinNT
#	Modification time:	15. 06. 2019 20:59

#	Program:	/corina/corina34_cracker 3.40 0067  02.08.2006

@<TRIPOS>MOLECULE
ASD05380287
  35   37    0    0    0
SMALL
NO_CHARGES


@<TRIPOS>ATOM
   1 C1             0.0105     1.2527    -0.3786 C.ar    
   2 C2             0.0334    -0.1091    -0.0017 C.ar    
   3 N3            -1.1136    -0.6927     0.4275 N.2     
   4 N4            -2.3443     1.2785     0.1480 N.am    
   5 C5            -1.2679     1.9719    -0.2905 C.2     
   6 C6             1.1770     1.8738    -0.8234 C.ar    
   7 C7             2.3488     1.1486    -0.8916 C.ar    
   8 C8             2.3732    -0.1889    -0.5223 C.ar    
   9 C9             1.2318    -0.8204    -0.0799 C.ar    
  10 O10           -1.3571     3.1437    -0.6081 O.2     
  11 Cl11           1.1549     3.5462    -1.2883 Cl      
  12 C12           -2.2282    -0.0308     0.4997 C.2     
  13 C13           -3.4583    -0.7523     0.9869 C.3     
  14 C14           -3.2125    -2.2620     0.9491 C.3     
  15 N15           -3.7549    -0.3388     2.3649 N.3     
  16 C16           -3.5864     1.9173     0.2509 C.ar    
  17 C17           -3.9251     2.5954     1.4141 C.ar    
  18 C18           -5.1526     3.2257     1.5138 C.ar    
  19 C19           -6.0432     3.1805     0.4545 C.ar    
  20 C20           -5.7075     2.5044    -0.7064 C.ar    
  21 C21           -4.4784     1.8780    -0.8123 C.ar    
  22 F22           -6.5782     2.4614    -1.7384 F       
  23 F23           -5.4829     3.8852     2.6457 F       
  24 H24            3.2546     1.6258    -1.2355 H       
  25 H25            3.2990    -0.7418    -0.5826 H       
  26 H26            1.2638    -1.8617     0.2049 H       
  27 H27           -4.3029    -0.5055     0.3437 H       
  28 H28           -2.3679    -2.5088     1.5923 H       
  29 H29           -4.1022    -2.7838     1.3015 H       
  30 H30           -2.9924    -2.5688    -0.0734 H       
  31 H31           -4.6036    -0.7716     2.6975 H       
  32 H32           -2.9804    -0.5432     2.9785 H       
  33 H33           -3.2309     2.6305     2.2407 H       
  34 H34           -7.0011     3.6731     0.5338 H       
  35 H35           -4.2167     1.3510    -1.7180 H       
@<TRIPOS>BOND
   1    1    2 ar
   2    1    6 ar
   3    1    5 1
   4    2    3 1
   5    2    9 ar
   6    3   12 2
   7    4    5 am
   8    4   12 1
   9    4   16 1
  10    5   10 2
  11    6    7 ar
  12    6   11 1
  13    7    8 ar
  14    7   24 1
  15    8    9 ar
  16    8   25 1
  17    9   26 1
  18   12   13 1
  19   13   14 1
  20   13   15 1
  21   13   27 1
  22   14   28 1
  23   14   29 1
  24   14   30 1
  25   15   31 1
  26   15   32 1
  27   16   17 ar
  28   16   21 ar
  29   17   18 ar
  30   17   33 1
  31   18   19 ar
  32   18   23 1
  33   19   20 ar
  34   19   34 1
  35   20   21 ar
  36   20   22 1
  37   21   35 1

#	End of record

