#	Name: ASD08830035
#	Creating user name:	WinNT
#	Creation time:	15. 06. 2019 21:19

#	Modifying user name:	WinNT
#	Modification time:	15. 06. 2019 21:19

#	Program:	/corina/corina34_cracker 3.40 0067  02.08.2006

@<TRIPOS>MOLECULE
ASD08830035
  50   52    0    0    0
SMALL
NO_CHARGES


@<TRIPOS>ATOM
   1 C1            -0.1158     0.5919     3.9633 C.ar    
   2 C2             0.0112    -0.8175     4.0625 C.ar    
   3 C3             0.9704     1.3597     3.5023 C.ar    
   4 C4             2.1324     0.7528     3.1546 C.ar    
   5 C5             2.2724    -0.6462     3.2478 C.ar    
   6 C6             1.2193    -1.4299     3.6991 C.ar    
   7 C7             3.5424    -1.2803     2.8637 C.2     
   8 C8             4.6888    -0.4344     2.3726 C.3     
   9 C9             5.8817    -1.3339     2.0428 C.3     
  10 N10            6.9992    -0.5092     1.5640 N.3     
  11 O11            3.6673    -2.4840     2.9423 O.2     
  12 C12            8.2323    -1.3012     1.4628 C.3     
  13 C13           -1.3299     1.1990     4.3225 C.ar    
  14 C14           -1.0786    -1.5774     4.5240 C.ar    
  15 C15           -2.2379    -0.9525     4.8685 C.ar    
  16 C16           -2.3659     0.4305     4.7600 C.ar    
  17 C17            9.3229    -0.4587     0.7927 C.3     
  18 N18            9.4553     0.8067     1.5306 N.am    
  19 C19            8.2385     1.5907     1.7914 C.3     
  20 C20            7.1905     0.6676     2.4222 C.3     
  21 C21           10.6597     1.2367     1.9560 C.2     
  22 O22           11.6048     0.4722     1.9791 O.2     
  23 N23           10.8164     2.5142     2.3558 N.am    
  24 C24           12.0631     2.9318     3.0021 C.3     
  25 C25            9.7402     3.4854     2.1441 C.3     
  26 H26            0.8782     2.4330     3.4251 H       
  27 H27            2.9607     1.3493     2.8016 H       
  28 H28            1.3293    -2.5019     3.7695 H       
  29 H29            4.3834     0.1068     1.4771 H       
  30 H30            4.9735     0.2771     3.1477 H       
  31 H31            6.1872    -1.8751     2.9383 H       
  32 H32            5.5970    -2.0453     1.2677 H       
  33 H33            8.5599    -1.5932     2.4606 H       
  34 H34            8.0436    -2.1934     0.8658 H       
  35 H35           -1.4417     2.2709     4.2527 H       
  36 H36           -0.9962    -2.6513     4.6044 H       
  37 H37           -3.0735    -1.5382     5.2222 H       
  38 H38           -3.2963     0.9020     5.0401 H       
  39 H39           10.2697    -0.9981     0.8182 H       
  40 H40            9.0434    -0.2526    -0.2405 H       
  41 H41            8.4683     2.4062     2.4771 H       
  42 H42            7.8547     1.9938     0.8542 H       
  43 H43            6.2463     1.2031     2.5210 H       
  44 H44            7.5327     0.3481     3.4066 H       
  45 H45           12.7682     3.2740     2.2446 H       
  46 H46           11.8566     3.7436     3.6995 H       
  47 H47           12.4920     2.0883     3.5432 H       
  48 H48            9.1085     3.1537     1.3200 H       
  49 H49            9.1410     3.5672     3.0510 H       
  50 H50           10.1702     4.4577     1.9038 H       
@<TRIPOS>BOND
   1    1    2 ar
   2    1    3 ar
   3    1   13 ar
   4    2   14 ar
   5    2    6 ar
   6    3    4 ar
   7    3   26 1
   8    4    5 ar
   9    4   27 1
  10    5    6 ar
  11    5    7 1
  12    6   28 1
  13    7    8 1
  14    7   11 2
  15    8    9 1
  16    8   29 1
  17    8   30 1
  18    9   10 1
  19    9   31 1
  20    9   32 1
  21   10   12 1
  22   10   20 1
  23   12   17 1
  24   12   33 1
  25   12   34 1
  26   13   16 ar
  27   13   35 1
  28   14   15 ar
  29   14   36 1
  30   15   16 ar
  31   15   37 1
  32   16   38 1
  33   17   18 1
  34   17   39 1
  35   17   40 1
  36   18   19 1
  37   18   21 am
  38   19   20 1
  39   19   41 1
  40   19   42 1
  41   20   43 1
  42   20   44 1
  43   21   22 2
  44   21   23 am
  45   23   24 1
  46   23   25 1
  47   24   45 1
  48   24   46 1
  49   24   47 1
  50   25   48 1
  51   25   49 1
  52   25   50 1

#	End of record

