#	Name: ASD01850077
#	Creating user name:	WinNT
#	Creation time:	15. 06. 2019 19:38

#	Modifying user name:	WinNT
#	Modification time:	15. 06. 2019 19:38

#	Program:	/corina/corina34_cracker 3.40 0067  02.08.2006

@<TRIPOS>MOLECULE
ASD01850077
  62   65    0    0    0
SMALL
NO_CHARGES


@<TRIPOS>ATOM
   1 C1             1.6368    -0.3574    -1.5860 C.ar    
   2 C2             1.2384    -0.9404    -0.3978 C.ar    
   3 C3             1.5877    -0.3608     0.8078 C.ar    
   4 C4             2.3358     0.8013     0.8249 C.ar    
   5 C5             2.7351     1.3839    -0.3636 C.ar    
   6 C6             2.3847     0.8053    -1.5689 C.ar    
   7 C7             4.9536     2.7308     1.7675 C.3     
   8 N8             3.7347     3.0929     1.0397 N.am    
   9 C9             5.0790     1.2071     1.8259 C.3     
  10 C10            2.7835     3.8320     1.6441 C.2     
  11 C11            3.0124     4.3625     3.0359 C.3     
  12 O12            1.7433     4.0702     1.0678 O.2     
  13 C13            1.9356     5.3972     3.3707 C.3     
  14 C14            2.9430     3.2088     4.0391 C.3     
  15 C15            3.2104     3.7462     5.4485 C.3     
  16 N16            2.2707     4.8418     5.7230 N.am    
  17 C17            2.1915     5.9594     4.7725 C.3     
  18 C18            2.2173     5.6227     8.3615 C.ar    
  19 C19            2.0845     6.9695     8.5372 C.ar    
  20 C20            2.7984     7.6081     9.5574 C.ar    
  21 C21            3.6460     6.8542    10.3918 C.ar    
  22 C22            3.7610     5.4810    10.1887 C.ar    
  23 C23            3.0502     4.8796     9.1893 C.ar    
  24 C24            2.8937     8.9898    10.0170 C.2     
  25 N25            3.7213     9.0185    11.0223 N.2     
  26 N26            4.2041     7.7320    11.2838 N.pl3   
  27 C27            3.5499     2.6515    -0.3449 C.3     
  28 C28            6.1703     3.3155     1.0472 C.3     
  29 S29            1.3186     4.8173     7.0777 S.o2    
  30 O30            0.1968     5.6423     6.7947 O.2     
  31 O31            1.2036     3.4543     7.4627 O.2     
  32 C32            2.8196     1.4406    -2.8643 C.3     
  33 F33            2.4050     0.6437    -3.9368 F       
  34 F34            2.2439     2.7107    -2.9772 F       
  35 F35            4.2136     1.5574    -2.8816 F       
  36 H36            1.3678    -0.8126    -2.5277 H       
  37 H37            0.6539    -1.8484    -0.4112 H       
  38 H38            1.2757    -0.8159     1.7362 H       
  39 H39            2.6080     1.2544     1.7667 H       
  40 H40            4.9042     3.1305     2.7803 H       
  41 H41            5.2590     0.8186     0.8235 H       
  42 H42            5.9111     0.9357     2.4756 H       
  43 H43            4.1563     0.7814     2.2203 H       
  44 H44            3.9951     4.8310     3.0889 H       
  45 H45            1.9703     6.2071     2.6420 H       
  46 H46            0.9544     4.9234     3.3423 H       
  47 H47            1.9523     2.7556     4.0044 H       
  48 H48            3.6947     2.4611     3.7861 H       
  49 H49            3.0649     2.9488     6.1773 H       
  50 H50            4.2332     4.1180     5.5099 H       
  51 H51            3.1312     6.5117     4.7788 H       
  52 H52            1.3738     6.6223     5.0553 H       
  53 H53            1.4322     7.5395     7.8921 H       
  54 H54            4.4083     4.8926    10.8221 H       
  55 H55            3.1423     3.8145     9.0358 H       
  56 H56            2.3714     9.8373     9.5983 H       
  57 H57            4.8329     7.4986    11.9846 H       
  58 H58            4.5228     2.4648    -0.7997 H       
  59 H59            3.0289     3.4267    -0.9069 H       
  60 H60            6.0809     4.4010     1.0056 H       
  61 H61            7.0771     3.0461     1.5887 H       
  62 H62            6.2196     2.9158     0.0343 H       
@<TRIPOS>BOND
   1    1    2 ar
   2    1    6 ar
   3    1   36 1
   4    2    3 ar
   5    2   37 1
   6    3    4 ar
   7    3   38 1
   8    4    5 ar
   9    4   39 1
  10    5    6 ar
  11    5   27 1
  12    6   32 1
  13    7    8 1
  14    7    9 1
  15    7   28 1
  16    7   40 1
  17    8   10 am
  18    8   27 1
  19    9   41 1
  20    9   42 1
  21    9   43 1
  22   10   11 1
  23   10   12 2
  24   11   13 1
  25   11   14 1
  26   11   44 1
  27   13   17 1
  28   13   45 1
  29   13   46 1
  30   14   15 1
  31   14   47 1
  32   14   48 1
  33   15   16 1
  34   15   49 1
  35   15   50 1
  36   16   29 am
  37   16   17 1
  38   17   51 1
  39   17   52 1
  40   18   29 1
  41   18   19 ar
  42   18   23 ar
  43   19   20 ar
  44   19   53 1
  45   20   21 ar
  46   20   24 1
  47   21   22 ar
  48   21   26 1
  49   22   23 ar
  50   22   54 1
  51   23   55 1
  52   24   25 2
  53   24   56 1
  54   25   26 1
  55   26   57 1
  56   27   58 1
  57   27   59 1
  58   28   60 1
  59   28   61 1
  60   28   62 1
  61   29   30 2
  62   29   31 2
  63   32   33 1
  64   32   34 1
  65   32   35 1

#	End of record

