#	Name: ASD02560032
#	Creating user name:	WinNT
#	Creation time:	15. 06. 2019 20:24

#	Modifying user name:	WinNT
#	Modification time:	15. 06. 2019 20:24

#	Program:	/corina/corina34_cracker 3.40 0067  02.08.2006

@<TRIPOS>MOLECULE
ASD02560032
  31   33    0    0    0
SMALL
NO_CHARGES


@<TRIPOS>ATOM
   1 C1            -0.0167     1.3794     0.0096 C.ar    
   2 C2             0.0021    -0.0041     0.0020 C.ar    
   3 C3            -1.1808    -0.7180     0.0095 C.ar    
   4 C4            -2.3944    -0.0444     0.0251 C.ar    
   5 C5            -2.4044     1.3466     0.0332 C.ar    
   6 C6            -1.2261     2.0561     0.0306 C.ar    
   7 N7            -3.6000    -0.7478     0.0333 N.am    
   8 C8            -4.7954    -0.1444     0.0489 C.2     
   9 N9            -4.9427     1.1928     0.0580 N.am    
  10 C10           -3.7432     2.0474     0.0502 C.3     
  11 C11           -3.7899     2.9063     1.2448 C.1     
  12 C12           -3.8272     3.5913     2.1975 C.1     
  13 C13           -3.8740     4.4502     3.3920 C.3     
  14 C14           -3.8178     2.9541    -1.1799 C.3     
  15 Cl15           1.4748     2.2676     0.0002 Cl      
  16 O16           -5.7943    -0.8374     0.0546 O.2     
  17 C17           -2.7205     5.4335     3.6007 C.3     
  18 C18           -4.0975     5.9483     3.1766 C.3     
  19 F19           -4.9720     3.7415    -1.1096 F       
  20 F20           -2.6904     3.7816    -1.2184 F       
  21 F21           -3.8591     2.1683    -2.3366 F       
  22 H22            0.9461    -0.5285    -0.0102 H       
  23 H23           -1.1612    -1.7978     0.0028 H       
  24 H24           -1.2433     3.1360     0.0369 H       
  25 H25           -3.5706    -1.7173     0.0272 H       
  26 H26           -5.8279     1.5892     0.0692 H       
  27 H27           -4.3162     3.9975     4.2795 H       
  28 H28           -2.4042     5.6280     4.6255 H       
  29 H29           -1.9271     5.4444     2.8534 H       
  30 H30           -4.2099     6.2980     2.1504 H       
  31 H31           -4.6870     6.4816     3.9224 H       
@<TRIPOS>BOND
   1    1    2 ar
   2    1   15 1
   3    1    6 ar
   4    2    3 ar
   5    2   22 1
   6    3    4 ar
   7    3   23 1
   8    4    5 ar
   9    4    7 1
  10    5    6 ar
  11    5   10 1
  12    6   24 1
  13    7    8 am
  14    7   25 1
  15    8    9 am
  16    8   16 2
  17    9   10 1
  18    9   26 1
  19   10   11 1
  20   10   14 1
  21   11   12 3
  22   12   13 1
  23   13   17 1
  24   13   18 1
  25   13   27 1
  26   14   19 1
  27   14   20 1
  28   14   21 1
  29   17   18 1
  30   17   28 1
  31   17   29 1
  32   18   30 1
  33   18   31 1

#	End of record

