#	Name: ASD01813441
#	Creating user name:	WinNT
#	Creation time:	15. 06. 2019 19:30

#	Modifying user name:	WinNT
#	Modification time:	15. 06. 2019 19:30

#	Program:	/corina/corina34_cracker 3.40 0067  02.08.2006

@<TRIPOS>MOLECULE
ASD01813441
  46   49    0    0    0
SMALL
NO_CHARGES


@<TRIPOS>ATOM
   1 C1            -0.0167     1.3820     0.0096 C.ar    
   2 C2             0.0021    -0.0041     0.0020 C.ar    
   3 C3             1.1959    -0.6932    -0.0127 C.ar    
   4 C4             2.4016     0.0019    -0.0200 C.ar    
   5 C5             2.3831     1.4075    -0.0128 C.ar    
   6 C6             1.1665     2.0939     0.0022 C.ar    
   7 N7             3.6010    -0.6771    -0.0337 N.pl3   
   8 C8             4.7870    -0.0549    -0.0404 C.2     
   9 C9             4.8957     1.3208    -0.0340 C.2     
  10 C10            3.6667     2.1313    -0.0207 C.2     
  11 O11            3.7091     3.3491    -0.0150 O.2     
  12 C12            6.2161     1.9660    -0.0412 C.2     
  13 O13            6.3092     3.3109    -0.0348 O.3     
  14 O14            7.2244     1.2870    -0.0529 O.2     
  15 C15            3.5775    -2.1419    -0.0409 C.3     
  16 C16            3.5572    -2.6371    -1.4640 C.ar    
  17 C17            4.7471    -2.8827    -2.1252 C.ar    
  18 C18            4.7343    -3.3363    -3.4287 C.ar    
  19 C19            3.5200    -3.5467    -4.0785 C.ar    
  20 C20            2.3245    -3.2977    -3.4078 C.ar    
  21 C21            2.3488    -2.8497    -2.1025 C.ar    
  22 C22            3.5000    -4.0339    -5.4805 C.2     
  23 F23            1.1476     3.4448     0.0091 F       
  24 C24            3.0230    -5.2233    -5.9541 C.2     
  25 O25            3.2230    -5.2067    -7.2789 O.3     
  26 N26            3.7469    -4.1799    -7.6417 N.2     
  27 C27            3.9676    -3.3696    -6.6491 C.2     
  28 C28            4.6021    -2.0046    -6.7202 C.3     
  29 C29            2.3975    -6.3322    -5.1477 C.3     
  30 H30           -0.9604     1.9071     0.0170 H       
  31 H31           -0.9295    -0.5505     0.0080 H       
  32 H32            1.1956    -1.7731    -0.0181 H       
  33 H33            5.6884    -0.6497    -0.0508 H       
  34 H34            7.1990     3.6894    -0.0400 H       
  35 H35            4.4660    -2.5220     0.4634 H       
  36 H36            2.6863    -2.4936     0.4789 H       
  37 H37            5.6879    -2.7189    -1.6207 H       
  38 H38            5.6639    -3.5274    -3.9442 H       
  39 H39            1.3804    -3.4588    -3.9070 H       
  40 H40            1.4226    -2.6567    -1.5815 H       
  41 H41            3.8290    -1.2523    -6.8773 H       
  42 H42            5.1255    -1.7981    -5.7867 H       
  43 H43            5.3105    -1.9759    -7.5481 H       
  44 H44            1.3206    -6.1747    -5.0875 H       
  45 H45            2.5984    -7.2893    -5.6291 H       
  46 H46            2.8211    -6.3346    -4.1434 H       
@<TRIPOS>BOND
   1    1    2 ar
   2    1    6 ar
   3    1   30 1
   4    2    3 ar
   5    2   31 1
   6    3    4 ar
   7    3   32 1
   8    4    5 ar
   9    4    7 1
  10    5    6 ar
  11    5   10 1
  12    6   23 1
  13    7    8 1
  14    7   15 1
  15    8    9 2
  16    8   33 1
  17    9   10 1
  18    9   12 1
  19   10   11 2
  20   12   13 1
  21   12   14 2
  22   13   34 1
  23   15   16 1
  24   15   35 1
  25   15   36 1
  26   16   17 ar
  27   16   21 ar
  28   17   18 ar
  29   17   37 1
  30   18   19 ar
  31   18   38 1
  32   19   20 ar
  33   19   22 1
  34   20   21 ar
  35   20   39 1
  36   21   40 1
  37   22   24 2
  38   22   27 1
  39   24   25 1
  40   24   29 1
  41   25   26 1
  42   26   27 2
  43   27   28 1
  44   28   41 1
  45   28   42 1
  46   28   43 1
  47   29   44 1
  48   29   45 1
  49   29   46 1

#	End of record

