#	Name: ASD01911501
#	Creating user name:	WinNT
#	Creation time:	15. 06. 2019 19:57

#	Modifying user name:	WinNT
#	Modification time:	15. 06. 2019 19:57

#	Program:	/corina/corina34_cracker 3.40 0067  02.08.2006

@<TRIPOS>MOLECULE
ASD01911501
  56   58    0    0    0
SMALL
NO_CHARGES


@<TRIPOS>ATOM
   1 O1             1.4700    -0.2846    -0.4530 O.3     
   2 C2             2.4225    -1.1944    -0.1954 C.2     
   3 N3             3.5843    -0.8885     0.3919 N.am    
   4 C4             3.9503     0.4747     0.7672 C.3     
   5 C5             2.6953     1.3486     0.8467 C.3     
   6 C6             1.8626     1.1154    -0.4214 C.3     
   7 O7             2.2194    -2.3503    -0.5102 O.2     
   8 C8             2.7008     1.4450    -1.6583 C.3     
   9 C9             0.6154     2.0011    -0.3905 C.3     
  10 O10            1.9298     0.9881     1.9982 O.3     
  11 C11            2.5487     1.3336     3.2391 C.3     
  12 C12            3.1100     2.7542     3.1509 C.3     
  13 C13            2.0643     3.6776     2.5226 C.3     
  14 C14            1.5282     1.2645     4.3458 C.ar    
  15 C15            0.3092     0.6511     4.1247 C.ar    
  16 C16           -0.6269     0.5878     5.1398 C.ar    
  17 C17           -0.3439     1.1374     6.3762 C.ar    
  18 C18            0.8754     1.7499     6.5976 C.ar    
  19 C19            1.8132     1.8095     5.5838 C.ar    
  20 C20            3.6690     0.3679     3.5277 C.ar    
  21 C21            3.4970    -0.9824     3.2865 C.ar    
  22 C22            4.5246    -1.8682     3.5513 C.ar    
  23 C23            5.7244    -1.4038     4.0570 C.ar    
  24 C24            5.8967    -0.0535     4.2975 C.ar    
  25 C25            4.8706     0.8329     4.0285 C.ar    
  26 C26            3.4543     3.2546     4.5551 C.3     
  27 C27            4.3726     2.7510     2.2867 C.3     
  28 H28            4.2121    -1.6043     0.5773 H       
  29 H29            4.4449     0.4624     1.7385 H       
  30 H30            4.6307     0.8853     0.0212 H       
  31 H31            2.9822     2.3983     0.9097 H       
  32 H32            2.1132     1.2550    -2.5565 H       
  33 H33            2.9925     2.4948    -1.6302 H       
  34 H34            3.5936     0.8199    -1.6692 H       
  35 H35           -0.0083     1.7208     0.4583 H       
  36 H36            0.9135     3.0450    -0.2932 H       
  37 H37            0.0526     1.8685    -1.3144 H       
  38 H38            1.2150     3.7777     3.1984 H       
  39 H39            2.5053     4.6586     2.3456 H       
  40 H40            1.7276     3.2545     1.5761 H       
  41 H41            0.0881     0.2217     3.1587 H       
  42 H42           -1.5795     0.1092     4.9669 H       
  43 H43           -1.0755     1.0885     7.1692 H       
  44 H44            1.0964     2.1796     7.5635 H       
  45 H45            2.7672     2.2848     5.7579 H       
  46 H46            2.5596    -1.3452     2.8914 H       
  47 H47            4.3900    -2.9232     3.3635 H       
  48 H48            6.5270    -2.0960     4.2646 H       
  49 H49            6.8339     0.3093     4.6929 H       
  50 H50            5.0065     1.8884     4.2129 H       
  51 H51            4.1532     2.5632     5.0259 H       
  52 H52            3.9104     4.2422     4.4872 H       
  53 H53            2.5447     3.3147     5.1526 H       
  54 H54            4.2091     2.1286     1.4069 H       
  55 H55            4.6012     3.7697     1.9737 H       
  56 H56            5.2068     2.3523     2.8639 H       
@<TRIPOS>BOND
   1    1    2 1
   2    1    6 1
   3    2    3 am
   4    2    7 2
   5    3    4 1
   6    3   28 1
   7    4    5 1
   8    4   29 1
   9    4   30 1
  10    5    6 1
  11    5   10 1
  12    5   31 1
  13    6    8 1
  14    6    9 1
  15    8   32 1
  16    8   33 1
  17    8   34 1
  18    9   35 1
  19    9   36 1
  20    9   37 1
  21   10   11 1
  22   11   12 1
  23   11   14 1
  24   11   20 1
  25   12   13 1
  26   12   26 1
  27   12   27 1
  28   13   38 1
  29   13   39 1
  30   13   40 1
  31   14   15 ar
  32   14   19 ar
  33   15   16 ar
  34   15   41 1
  35   16   17 ar
  36   16   42 1
  37   17   18 ar
  38   17   43 1
  39   18   19 ar
  40   18   44 1
  41   19   45 1
  42   20   21 ar
  43   20   25 ar
  44   21   22 ar
  45   21   46 1
  46   22   23 ar
  47   22   47 1
  48   23   24 ar
  49   23   48 1
  50   24   25 ar
  51   24   49 1
  52   25   50 1
  53   26   51 1
  54   26   52 1
  55   26   53 1
  56   27   54 1
  57   27   55 1
  58   27   56 1

#	End of record

