#	Name: ASD02039312
#	Creating user name:	WinNT
#	Creation time:	15. 06. 2019 20:18

#	Modifying user name:	WinNT
#	Modification time:	15. 06. 2019 20:18

#	Program:	/corina/corina34_cracker 3.40 0067  02.08.2006

@<TRIPOS>MOLECULE
ASD02039312
  51   53    0    0    0
SMALL
NO_CHARGES


@<TRIPOS>ATOM
   1 C1             0.1361     1.1854    -0.3156 C.ar    
   2 C2             0.5183    -0.0927     0.0509 C.ar    
   3 C3            -0.3855    -1.1373    -0.0165 C.ar    
   4 C4            -1.6779    -0.9090    -0.4509 C.ar    
   5 C5            -2.0684     0.3797    -0.8214 C.ar    
   6 C6            -1.1526     1.4277    -0.7459 C.ar    
   7 C7            -3.4522     0.6326    -1.2882 C.ar    
   8 C8             1.1279     2.3174    -0.2388 C.3     
   9 N9             1.9438     2.3351    -1.4554 N.am    
  10 C10            1.4500     3.0091    -2.6588 C.3     
  11 C11            3.1488     1.7315    -1.4676 C.2     
  12 C12            3.6007     0.9652    -0.2933 C.2     
  13 C13            4.7337     0.2098    -0.2106 C.2     
  14 C14            2.4327     4.1083    -3.0674 C.3     
  15 N15            2.9687     0.8870     0.9056 N.2     
  16 C16            3.6617     0.1209     1.6976 C.2     
  17 N17            4.7645    -0.3170     1.0361 N.pl3   
  18 O18            3.8631     1.8193    -2.4481 O.2     
  19 C19            5.8007    -1.2013     1.5750 C.3     
  20 C20            1.3199     1.9930    -3.7953 C.3     
  21 C21           -4.0212    -0.1667    -2.2840 C.ar    
  22 C22           -4.2077     1.6698    -0.7347 C.ar    
  23 N23           -5.4344     1.8987    -1.1438 N.ar    
  24 C24           -6.0043     1.1629    -2.0913 C.ar    
  25 C25           -5.3150     0.1071    -2.6874 C.ar    
  26 C26           -7.3901     1.4630    -2.5153 C.2     
  27 F27           -2.5605    -1.9297    -0.5171 F       
  28 N28           -8.0658     2.4778    -1.9407 N.am    
  29 O29           -7.9188     0.7944    -3.3817 O.2     
  30 H30            1.5270    -0.2755     0.3908 H       
  31 H31           -0.0810    -2.1330     0.2702 H       
  32 H32           -1.4489     2.4264    -1.0308 H       
  33 H33            0.5937     3.2629    -0.1458 H       
  34 H34            1.7725     2.1774     0.6290 H       
  35 H35            0.4751     3.4512    -2.4534 H       
  36 H36            5.4657     0.0604    -0.9904 H       
  37 H37            3.4234     3.6760    -3.2080 H       
  38 H38            2.0999     4.5650    -3.9995 H       
  39 H39            2.4748     4.8669    -2.2858 H       
  40 H40            3.4032    -0.1245     2.7171 H       
  41 H41            5.5327    -2.2389     1.3755 H       
  42 H42            6.7550    -0.9748     1.0994 H       
  43 H43            5.8855    -1.0483     2.6508 H       
  44 H44            0.5857     1.2349    -3.5226 H       
  45 H45            0.9961     2.5025    -4.7029 H       
  46 H46            2.2852     1.5178    -3.9701 H       
  47 H47           -3.4635    -0.9782    -2.7277 H       
  48 H48           -3.7780     2.2898     0.0382 H       
  49 H49           -5.7847    -0.4868    -3.4575 H       
  50 H50           -7.6439     3.0114    -1.2492 H       
  51 H51           -8.9741     2.6745    -2.2186 H       
@<TRIPOS>BOND
   1    1    2 ar
   2    1    8 1
   3    1    6 ar
   4    2    3 ar
   5    2   30 1
   6    3    4 ar
   7    3   31 1
   8    4    5 ar
   9    4   27 1
  10    5    6 ar
  11    5    7 1
  12    6   32 1
  13    7   21 ar
  14    7   22 ar
  15    8    9 1
  16    8   33 1
  17    8   34 1
  18    9   10 1
  19    9   11 am
  20   10   20 1
  21   10   14 1
  22   10   35 1
  23   11   12 1
  24   11   18 2
  25   12   13 2
  26   12   15 1
  27   13   17 1
  28   13   36 1
  29   14   37 1
  30   14   38 1
  31   14   39 1
  32   15   16 2
  33   16   17 1
  34   16   40 1
  35   17   19 1
  36   19   41 1
  37   19   42 1
  38   19   43 1
  39   20   44 1
  40   20   45 1
  41   20   46 1
  42   21   25 ar
  43   21   47 1
  44   22   23 ar
  45   22   48 1
  46   23   24 ar
  47   24   25 ar
  48   24   26 1
  49   25   49 1
  50   26   28 am
  51   26   29 2
  52   28   50 1
  53   28   51 1

#	End of record

