#	Name: ASD09116096
#	Creating user name:	WinNT
#	Creation time:	15. 06. 2019 21:20

#	Modifying user name:	WinNT
#	Modification time:	15. 06. 2019 21:20

#	Program:	/corina/corina34_cracker 3.40 0067  02.08.2006

@<TRIPOS>MOLECULE
ASD09116096
  69   74    0    0    0
SMALL
NO_CHARGES


@<TRIPOS>ATOM
   1 C1             5.7497    -1.2068     1.2262 C.ar    
   2 N2             4.7331    -2.1336     1.0067 N.pl3   
   3 N3             3.4600    -1.8763     0.4728 N.2     
   4 C4             2.8210    -3.0208     0.4366 C.2     
   5 N5             3.6172    -3.9834     0.9164 N.2     
   6 C6             4.7779    -3.4686     1.2612 C.2     
   7 N7             5.8484    -4.1599     1.7948 N.pl3   
   8 N8             1.5189    -3.2054    -0.0279 N.pl3   
   9 C9             5.5621     0.1461     0.9078 C.ar    
  10 N10            6.9098    -1.5883     1.7451 N.ar    
  11 C11            7.8768    -0.7137     1.9557 C.ar    
  12 N12            7.7514     0.5582     1.6705 N.ar    
  13 C13            6.6064     1.0461     1.1433 C.ar    
  14 C14            0.9865    -4.4943    -0.1217 C.ar    
  15 C15           -0.3821    -4.7013    -0.0017 C.ar    
  16 N16           -0.8927    -5.9155    -0.0819 N.ar    
  17 C17           -0.1299    -6.9685    -0.2756 C.ar    
  18 C18            1.2430    -6.8407    -0.4179 C.ar    
  19 C19            1.8213    -5.5897    -0.3427 C.ar    
  20 C20            6.2768     2.3593     0.7727 C.2     
  21 C21            5.0612     2.5300     0.2778 C.2     
  22 S22            4.1895     1.0069     0.2269 S.3     
  23 C23            7.2459     3.5028     0.9289 C.3     
  24 C24           -0.6993    -8.3619    -0.3372 C.3     
  25 C25           -0.9278    -8.8245    -1.7399 C.3     
  26 C26            0.2660    -9.3141    -2.5358 C.3     
  27 C27            1.1293    -8.1246    -2.9942 C.3     
  28 C28            2.4334    -8.1335    -2.1504 C.3     
  29 C29            2.0626    -8.0762    -0.6696 C.3     
  30 N30            1.4573    -8.2673    -4.4189 N.3     
  31 C31            1.7363    -6.9602    -5.0285 C.3     
  32 C32            2.6404    -7.1488    -6.2483 C.3     
  33 C33            2.9309    -5.7874    -6.8831 C.3     
  34 C34            1.6164    -5.1367    -7.3184 C.3     
  35 C35            0.7122    -4.9481    -6.0986 C.3     
  36 C36            0.4217    -6.3095    -5.4637 C.3     
  37 H37            5.7816    -5.1156     1.9466 H       
  38 H38            6.6669    -3.6895     2.0177 H       
  39 H39            0.9829    -2.4393    -0.2860 H       
  40 H40            8.8072    -1.0611     2.3799 H       
  41 H41           -1.0367    -3.8576     0.1596 H       
  42 H42            2.8892    -5.4637    -0.4433 H       
  43 H43            4.6605     3.4773    -0.0516 H       
  44 H44            7.8402     3.6020     0.0206 H       
  45 H45            6.6934     4.4259     1.1042 H       
  46 H46            7.9049     3.3075     1.7748 H       
  47 H47           -0.0074    -9.0476     0.1521 H       
  48 H48           -1.6482    -8.3792     0.1989 H       
  49 H49           -1.6584    -9.6327    -1.7074 H       
  50 H50           -1.3781    -7.9994    -2.2917 H       
  51 H51            0.8669    -9.9772    -1.9135 H       
  52 H52           -0.0841    -9.8635    -3.4098 H       
  53 H53            0.5897    -7.1918    -2.8303 H       
  54 H54            2.9925    -9.0472    -2.3519 H       
  55 H55            3.0414    -7.2664    -2.4086 H       
  56 H56            2.9705    -8.0406    -0.0674 H       
  57 H57            1.4817    -8.9595    -0.4046 H       
  58 H58            2.2322    -8.9002    -4.5500 H       
  59 H59            2.2356    -6.3195    -4.3017 H       
  60 H60            3.5769    -7.6124    -5.9382 H       
  61 H61            2.1410    -7.7895    -6.9751 H       
  62 H62            3.4303    -5.1467    -6.1563 H       
  63 H63            3.5750    -5.9217    -7.7522 H       
  64 H64            1.8233    -4.1668    -7.7707 H       
  65 H65            1.1170    -5.7774    -8.0452 H       
  66 H66            1.2116    -4.3074    -5.3718 H       
  67 H67           -0.2243    -4.4845    -6.4087 H       
  68 H68           -0.0777    -6.9502    -6.1906 H       
  69 H69           -0.2224    -6.1751    -4.5947 H       
@<TRIPOS>BOND
   1    1    2 1
   2    1    9 ar
   3    1   10 ar
   4    2    3 1
   5    2    6 1
   6    3    4 2
   7    4    5 1
   8    4    8 1
   9    5    6 2
  10    6    7 1
  11    7   37 1
  12    7   38 1
  13    8   14 1
  14    8   39 1
  15    9   13 ar
  16    9   22 1
  17   10   11 ar
  18   11   12 ar
  19   11   40 1
  20   12   13 ar
  21   13   20 1
  22   14   15 ar
  23   14   19 ar
  24   15   16 ar
  25   15   41 1
  26   16   17 ar
  27   17   18 ar
  28   17   24 1
  29   18   19 ar
  30   18   29 1
  31   19   42 1
  32   20   21 2
  33   20   23 1
  34   21   22 1
  35   21   43 1
  36   23   44 1
  37   23   45 1
  38   23   46 1
  39   24   25 1
  40   24   47 1
  41   24   48 1
  42   25   26 1
  43   25   49 1
  44   25   50 1
  45   26   27 1
  46   26   51 1
  47   26   52 1
  48   27   28 1
  49   27   30 1
  50   27   53 1
  51   28   29 1
  52   28   54 1
  53   28   55 1
  54   29   56 1
  55   29   57 1
  56   30   31 1
  57   30   58 1
  58   31   32 1
  59   31   36 1
  60   31   59 1
  61   32   33 1
  62   32   60 1
  63   32   61 1
  64   33   34 1
  65   33   62 1
  66   33   63 1
  67   34   35 1
  68   34   64 1
  69   34   65 1
  70   35   36 1
  71   35   66 1
  72   35   67 1
  73   36   68 1
  74   36   69 1

#	End of record

