#	Name: ASD01940573
#	Creating user name:	WinNT
#	Creation time:	15. 06. 2019 20:12

#	Modifying user name:	WinNT
#	Modification time:	15. 06. 2019 20:12

#	Program:	/corina/corina34_cracker 3.40 0067  02.08.2006

@<TRIPOS>MOLECULE
ASD01940573
  44   46    0    0    0
SMALL
NO_CHARGES


@<TRIPOS>ATOM
   1 C1             0.1632     2.5244     2.6976 C.ar    
   2 C2            -0.0637     1.2271     3.1365 C.ar    
   3 C3            -0.1772     0.1938     2.2147 C.ar    
   4 C4            -0.0645     0.4572     0.8631 C.ar    
   5 C5             0.1613     1.7477     0.4244 C.ar    
   6 C6             0.2757     2.7844     1.3408 C.ar    
   7 N7            -0.1772     0.9609     4.5028 N.am    
   8 S8            -1.3887    -0.0227     5.0570 S.o2    
   9 *9            -1.0848    -1.6765     4.3870 Du      
  10 O10           -1.2138    -0.1213     6.4637 O.2     
  11 O11           -2.5890     0.4403     4.4536 O.2     
  12 O12            0.4973     4.0532     0.9078 O.3     
  13 C13            1.7828     4.4677     0.7818 C.ar    
  14 C14            2.8223     3.5722     0.9665 C.ar    
  15 C15            4.1367     3.9921     0.8391 C.ar    
  16 C16            4.4257     5.3095     0.5258 C.ar    
  17 C17            3.3992     6.2225     0.3362 C.ar    
  18 C18            2.0628     5.8043     0.4582 C.ar    
  19 N19            3.6906     7.5442     0.0223 N.pl3   
  20 C20            4.6219     8.2556     0.7863 C.ar    
  21 C21            5.1107     7.7150     1.9681 C.ar    
  22 C22            6.0306     8.4195     2.7202 C.ar    
  23 C23            6.4655     9.6630     2.2981 C.ar    
  24 C24            5.9815    10.2058     1.1214 C.ar    
  25 C25            5.0647     9.5036     0.3606 C.ar    
  26 F26            4.5958    10.0313    -0.7912 F       
  27 F27            5.1434     3.1100     1.0224 F       
  28 I28            7.8598    10.7270     3.4440 I       
  29 C29            0.9660     6.7617     0.2536 C.2     
  30 N30            0.4395     6.9306    -0.9756 N.am    
  31 O31            0.5337     7.4014     1.1937 O.2     
  32 H32            0.2475     3.3303     3.4117 H       
  33 H33           -0.3534    -0.8160     2.5549 H       
  34 H34           -0.1527    -0.3474     0.1480 H       
  35 H35            0.2490     1.9504    -0.6328 H       
  36 H36            0.4537     1.3521     5.1272 H       
  37 H37            2.6079     2.5424     1.2112 H       
  38 H38            5.4534     5.6270     0.4291 H       
  39 H39            3.2482     7.9736    -0.7265 H       
  40 H40            4.7716     6.7446     2.2993 H       
  41 H41            6.4107     7.9988     3.6395 H       
  42 H42            6.3226    11.1770     0.7947 H       
  43 H43            0.7842     6.4205    -1.7251 H       
  44 H44           -0.2841     7.5623    -1.1106 H       
@<TRIPOS>BOND
   1    1    2 ar
   2    1    6 ar
   3    1   32 1
   4    2    3 ar
   5    2    7 1
   6    3    4 ar
   7    3   33 1
   8    4    5 ar
   9    4   34 1
  10    5    6 ar
  11    5   35 1
  12    6   12 1
  13    7    8 am
  14    7   36 1
  15    8    9 1
  16    8   10 2
  17    8   11 2
  18   12   13 1
  19   13   14 ar
  20   13   18 ar
  21   14   15 ar
  22   14   37 1
  23   15   16 ar
  24   15   27 1
  25   16   17 ar
  26   16   38 1
  27   17   18 ar
  28   17   19 1
  29   18   29 1
  30   19   20 1
  31   19   39 1
  32   20   21 ar
  33   20   25 ar
  34   21   22 ar
  35   21   40 1
  36   22   23 ar
  37   22   41 1
  38   23   24 ar
  39   23   28 1
  40   24   25 ar
  41   24   42 1
  42   25   26 1
  43   29   30 am
  44   29   31 2
  45   30   43 1
  46   30   44 1

#	End of record

