#	Name: ASD00190035
#	Creating user name:	WinNT
#	Creation time:	15. 06. 2019 18:33

#	Modifying user name:	WinNT
#	Modification time:	15. 06. 2019 18:33

#	Program:	/corina/corina34_cracker 3.40 0067  02.08.2006

@<TRIPOS>MOLECULE
ASD00190035
  39   43    0    0    0
SMALL
NO_CHARGES


@<TRIPOS>ATOM
   1 C1            -0.0139     1.3574     0.0023 C.ar    
   2 C2             0.0053    -0.0053    -0.0140 C.ar    
   3 C3             1.2079    -0.7039    -0.0438 C.ar    
   4 C4             2.3993    -0.0400    -0.0570 C.ar    
   5 C5             2.4147     1.3600    -0.0409 C.ar    
   6 C6             1.1927     2.0739    -0.0110 C.ar    
   7 C7             3.6279     2.0846    -0.0543 C.ar    
   8 C8             3.5698     3.4820    -0.0374 C.ar    
   9 C9             2.3049     4.1165    -0.0076 C.ar    
  10 N10            1.1924     3.4158     0.0037 N.ar    
  11 N11            4.9564     1.7475    -0.0819 N.pl3   
  12 C12            5.6699     2.9191    -0.0813 C.2     
  13 N13            4.8376     3.9361    -0.0549 N.2     
  14 N14            2.2379     5.5004     0.0098 N.pl3   
  15 C15            0.9987     6.1414    -0.0809 C.ar    
  16 C16            7.1369     3.0213    -0.1067 C.2     
  17 O17            8.0021     1.9880    -0.1348 O.3     
  18 C18            9.2585     2.4591    -0.1528 C.2     
  19 C19            9.2159     3.8072    -0.1364 C.2     
  20 C20            7.8587     4.1774    -0.1119 C.2     
  21 C21            0.7780     7.3288     0.6050 C.ar    
  22 C22           -0.4469     7.9608     0.5137 C.ar    
  23 C23           -1.4542     7.4121    -0.2597 C.ar    
  24 C24           -1.2374     6.2279    -0.9450 C.ar    
  25 C25           -0.0119     5.5948    -0.8615 C.ar    
  26 Cl26          -2.5037     5.5424    -1.9146 Cl      
  27 Cl27          -2.9926     8.2086    -0.3712 Cl      
  28 H28           -0.9561     1.8849     0.0209 H       
  29 H29           -0.9267    -0.5508    -0.0032 H       
  30 H30            1.1981    -1.7838    -0.0562 H       
  31 H31            3.3272    -0.5921    -0.0794 H       
  32 H32            5.3229     0.8496    -0.0983 H       
  33 H33            3.0507     6.0244     0.0849 H       
  34 H34           10.1556     1.8581    -0.1762 H       
  35 H35           10.0636     4.4762    -0.1445 H       
  36 H36            7.4652     5.1830    -0.0949 H       
  37 H37            1.5635     7.7576     1.2096 H       
  38 H38           -0.6185     8.8842     1.0469 H       
  39 H39            0.1571     4.6716    -1.3958 H       
@<TRIPOS>BOND
   1    1    2 ar
   2    1    6 ar
   3    1   28 1
   4    2    3 ar
   5    2   29 1
   6    3    4 ar
   7    3   30 1
   8    4    5 ar
   9    4   31 1
  10    5    6 ar
  11    5    7 ar
  12    6   10 ar
  13    7    8 ar
  14    7   11 1
  15    8    9 ar
  16    8   13 1
  17    9   10 ar
  18    9   14 1
  19   11   12 1
  20   11   32 1
  21   12   13 2
  22   12   16 1
  23   14   15 1
  24   14   33 1
  25   15   21 ar
  26   15   25 ar
  27   16   17 1
  28   16   20 2
  29   17   18 1
  30   18   19 2
  31   18   34 1
  32   19   20 1
  33   19   35 1
  34   20   36 1
  35   21   22 ar
  36   21   37 1
  37   22   23 ar
  38   22   38 1
  39   23   24 ar
  40   23   27 1
  41   24   25 ar
  42   24   26 1
  43   25   39 1

#	End of record

