#	Name: ASD00170720
#	Creating user name:	WinNT
#	Creation time:	15. 06. 2019 18:32

#	Modifying user name:	WinNT
#	Modification time:	15. 06. 2019 18:32

#	Program:	/corina/corina34_cracker 3.40 0067  02.08.2006

@<TRIPOS>MOLECULE
ASD00170720
  31   33    0    0    0
SMALL
NO_CHARGES


@<TRIPOS>ATOM
   1 C1            -0.0144     1.2093     0.0087 C.2     
   2 O2             0.0021    -0.0041     0.0020 O.2     
   3 C3             1.2438     1.9587     0.0007 C.ar    
   4 C4             1.2310     3.3714     0.0084 C.ar    
   5 C5             2.4383     4.0690     0.0011 C.ar    
   6 C6             3.6336     3.3800    -0.0135 C.ar    
   7 C7             3.6474     1.9910    -0.0211 C.ar    
   8 C8             2.4689     1.2807    -0.0088 C.ar    
   9 Cl9            5.1324     4.2559    -0.0231 Cl      
  10 C10           -0.9312     4.0464     1.0742 C.2     
  11 C11           -0.0504     4.1033     0.0236 C.2     
  12 C12           -0.4738     4.9133    -1.0270 C.2     
  13 C13           -1.6650     5.5015    -0.8418 C.2     
  14 S14           -2.3326     5.0469     0.7189 S.3     
  15 C15           -3.5113     8.0378    -3.5678 C.ar    
  16 N16           -4.1196     7.7745    -2.4280 N.ar    
  17 C17           -3.5692     6.9735    -1.5326 C.ar    
  18 C18           -2.3214     6.4029    -1.8110 C.ar    
  19 C19           -1.7133     6.7111    -3.0338 C.ar    
  20 N20           -2.3361     7.5223    -3.8706 N.ar    
  21 N21           -0.7475     3.3099     2.2328 N.pl3   
  22 H22           -0.9569     1.7366     0.0160 H       
  23 H23            2.4378     5.1490     0.0066 H       
  24 H24            4.5903     1.4645    -0.0326 H       
  25 H25            2.4888     0.2009    -0.0106 H       
  26 H26            0.1125     5.0572    -1.9225 H       
  27 H27           -3.9931     8.6934    -4.2781 H       
  28 H28           -4.0735     6.7629    -0.6011 H       
  29 H29           -0.7507     6.2930    -3.2888 H       
  30 H30            0.0560     2.7789     2.3477 H       
  31 H31           -1.4224     3.3253     2.9294 H       
@<TRIPOS>BOND
   1    1    2 2
   2    1    3 1
   3    1   22 1
   4    3    4 ar
   5    3    8 ar
   6    4    5 ar
   7    4   11 1
   8    5    6 ar
   9    5   23 1
  10    6    7 ar
  11    6    9 1
  12    7    8 ar
  13    7   24 1
  14    8   25 1
  15   10   11 2
  16   10   14 1
  17   10   21 1
  18   11   12 1
  19   12   13 2
  20   12   26 1
  21   13   14 1
  22   13   18 1
  23   15   16 ar
  24   15   20 ar
  25   15   27 1
  26   16   17 ar
  27   17   18 ar
  28   17   28 1
  29   18   19 ar
  30   19   20 ar
  31   19   29 1
  32   21   30 1
  33   21   31 1

#	End of record

