#	Name: ASD01881072
#	Creating user name:	WinNT
#	Creation time:	15. 06. 2019 19:41

#	Modifying user name:	WinNT
#	Modification time:	15. 06. 2019 19:41

#	Program:	/corina/corina34_cracker 3.40 0067  02.08.2006

@<TRIPOS>MOLECULE
ASD01881072
  40   42    0    0    0
SMALL
NO_CHARGES


@<TRIPOS>ATOM
   1 C1            -0.0168     1.3896     0.0097 C.ar    
   2 C2             0.0021    -0.0041     0.0020 C.ar    
   3 C3             1.2025    -0.6930    -0.0126 C.ar    
   4 C4             2.3994     0.0196    -0.0202 C.ar    
   5 C5             2.3726     1.4349    -0.0129 C.ar    
   6 C6             1.1477     2.1058     0.0024 C.ar    
   7 C7             3.7010    -0.6514    -0.0352 C.2     
   8 C8             4.8226     0.0863    -0.0415 C.2     
   9 N9             4.7999     1.4520    -0.0345 N.am    
  10 C10            3.6492     2.1532    -0.0207 C.2     
  11 C11            6.0712     2.1800    -0.0423 C.3     
  12 C12            6.5008     2.4407    -1.4874 C.3     
  13 C13            7.8285     3.2011    -1.4955 C.3     
  14 O14            3.6705     3.3711    -0.0148 O.2     
  15 Cl15           1.1041     3.8412     0.0116 Cl      
  16 O16           -1.1681    -0.6924     0.0095 O.3     
  17 C17           -2.3727     0.0761     0.0250 C.3     
  18 C18           -3.5603    -0.8515     0.0314 C.ar    
  19 C19           -4.1021    -1.2900     1.2297 C.ar    
  20 C20           -5.1951    -2.1425     1.1871 C.ar    
  21 C21           -5.7042    -2.5239    -0.0396 C.ar    
  22 N22           -5.1627    -2.0872    -1.1600 N.ar    
  23 C23           -4.1268    -1.2714    -1.1576 C.ar    
  24 H24           -0.9631     1.9102     0.0170 H       
  25 H25            1.2111    -1.7729    -0.0178 H       
  26 H26            3.7581    -1.7299    -0.0407 H       
  27 H27            5.7774    -0.4183    -0.0522 H       
  28 H28            5.9489     3.1303     0.4774 H       
  29 H29            6.8333     1.5858     0.4618 H       
  30 H30            6.6232     1.4904    -2.0071 H       
  31 H31            5.7387     3.0350    -1.9915 H       
  32 H32            8.1346     3.3868    -2.5251 H       
  33 H33            7.7061     4.1513    -0.9758 H       
  34 H34            8.5906     2.6068    -0.9915 H       
  35 H35           -2.3942     0.6999     0.9186 H       
  36 H36           -2.4111     0.7095    -0.8612 H       
  37 H37           -3.6828    -0.9755     2.1739 H       
  38 H38           -5.6424    -2.5041     2.1012 H       
  39 H39           -6.5552    -3.1875    -0.0813 H       
  40 H40           -3.7103    -0.9348    -2.0954 H       
@<TRIPOS>BOND
   1    1    2 ar
   2    1    6 ar
   3    1   24 1
   4    2    3 ar
   5    2   16 1
   6    3    4 ar
   7    3   25 1
   8    4    5 ar
   9    4    7 1
  10    5    6 ar
  11    5   10 1
  12    6   15 1
  13    7    8 2
  14    7   26 1
  15    8    9 1
  16    8   27 1
  17    9   10 am
  18    9   11 1
  19   10   14 2
  20   11   12 1
  21   11   28 1
  22   11   29 1
  23   12   13 1
  24   12   30 1
  25   12   31 1
  26   13   32 1
  27   13   33 1
  28   13   34 1
  29   16   17 1
  30   17   18 1
  31   17   35 1
  32   17   36 1
  33   18   19 ar
  34   18   23 ar
  35   19   20 ar
  36   19   37 1
  37   20   21 ar
  38   20   38 1
  39   21   22 ar
  40   21   39 1
  41   22   23 ar
  42   23   40 1

#	End of record

