#	Name: ASD00170182
#	Creating user name:	WinNT
#	Creation time:	15. 06. 2019 18:31

#	Modifying user name:	WinNT
#	Modification time:	15. 06. 2019 18:31

#	Program:	/corina/corina34_cracker 3.40 0067  02.08.2006

@<TRIPOS>MOLECULE
ASD00170182
  53   53    0    0    0
SMALL
NO_CHARGES


@<TRIPOS>ATOM
   1 C1             3.3331     1.4449    -3.6810 C.ar    
   2 C2             3.3713     0.0603    -3.6905 C.ar    
   3 C3             3.5101    -0.6424    -2.5049 C.ar    
   4 C4             3.6106     0.0336    -1.3073 C.ar    
   5 C5             3.5727     1.4292    -1.2913 C.ar    
   6 C6             3.4331     2.1320    -2.4896 C.ar    
   7 Cl7            3.2442    -0.7978    -5.1943 Cl      
   8 C8             4.9696     4.3203    -0.0729 C.2     
   9 C9             3.7612     3.6215    -0.0062 C.2     
  10 C10            3.6794     2.1599    -0.0104 C.2     
  11 O11            3.6994     1.5460     1.0410 O.2     
  12 C12            4.8242     5.6547    -0.0499 C.2     
  13 S13            3.1230     6.0791     0.0512 S.3     
  14 C14            2.6531     4.4394     0.0645 C.2     
  15 N15            1.3509     3.9951     0.1353 N.pl3   
  16 C16            5.9015     6.5967    -0.0998 C.1     
  17 C17            6.7848     7.3690    -0.1407 C.1     
  18 C18            6.3113     3.6393    -0.1565 C.3     
  19 C19            9.0682    13.1940    -0.2038 C.3     
  20 C20            7.9171    12.1875    -0.1505 C.3     
  21 C21            8.4802    10.7657    -0.1979 C.3     
  22 C22            7.3291     9.7592    -0.1446 C.3     
  23 C23            7.8923     8.3374    -0.1920 C.3     
  24 H24            3.2293     1.9876    -4.6090 H       
  25 H25            3.5392    -1.7219    -2.5185 H       
  26 H26            3.7180    -0.5154    -0.3834 H       
  27 H27            3.4035     3.2116    -2.4835 H       
  28 H28            0.6279     4.6298     0.2587 H       
  29 H29            1.1571     3.0475     0.0618 H       
  30 H30            6.5743     3.4818    -1.2025 H       
  31 H31            7.0668     4.2657     0.3178 H       
  32 H32            6.2633     2.6779     0.3548 H       
  33 H33            9.7286    13.0361     0.6489 H       
  34 H34            9.6291    13.0559    -1.1282 H       
  35 H35            8.6671    14.2069    -0.1701 H       
  36 H36            7.3563    12.3255     0.7739 H       
  37 H37            7.2567    12.3453    -1.0032 H       
  38 H38            9.0411    10.6276    -1.1223 H       
  39 H39            9.1407    10.6078     0.6548 H       
  40 H40            6.7683     9.8972     0.7798 H       
  41 H41            6.6687     9.9170    -0.9973 H       
  42 H42            8.5527     8.1795     0.6607 H       
  43 H43            8.4531     8.1993    -1.1164 H       
  44 C44           17.4268    22.3328     6.9673 C.3     
  45 C45           17.4473    20.8259     6.9590 C.2     
  46 C46           16.3244    20.1571     6.9661 C.1     
  47 C47           15.2015    19.4882     6.9733 C.2     
  48 H48           18.4494    22.7100     6.9596 H       
  49 H49           16.8996    22.6938     6.0842 H       
  50 H50           16.9166    22.6843     7.8641 H       
  51 H51           18.3898    20.2987     6.9472 H       
  52 H52           14.7465    19.2069     7.9115 H       
  53 H53           14.7286    19.2169     6.0410 H       
@<TRIPOS>BOND
   1    1    2 ar
   2    1    6 ar
   3    1   24 1
   4    2    3 ar
   5    2    7 1
   6    3    4 ar
   7    3   25 1
   8    4    5 ar
   9    4   26 1
  10    5    6 ar
  11    5   10 1
  12    6   27 1
  13    8   18 1
  14    8    9 1
  15    8   12 2
  16    9   10 1
  17    9   14 2
  18   10   11 2
  19   12   13 1
  20   12   16 1
  21   13   14 1
  22   14   15 1
  23   15   28 1
  24   15   29 1
  25   16   17 3
  26   17   23 1
  27   18   30 1
  28   18   31 1
  29   18   32 1
  30   19   20 1
  31   19   33 1
  32   19   34 1
  33   19   35 1
  34   20   21 1
  35   20   36 1
  36   20   37 1
  37   21   22 1
  38   21   38 1
  39   21   39 1
  40   22   23 1
  41   22   40 1
  42   22   41 1
  43   23   42 1
  44   23   43 1
  45   44   45 1
  46   44   48 1
  47   44   49 1
  48   44   50 1
  49   45   46 2
  50   45   51 1
  51   46   47 2
  52   47   52 1
  53   47   53 1

#	End of record

