#	Name: ASD03090809
#	Creating user name:	WinNT
#	Creation time:	15. 06. 2019 20:29

#	Modifying user name:	WinNT
#	Modification time:	15. 06. 2019 20:29

#	Program:	/corina/corina34_cracker 3.40 0067  02.08.2006

@<TRIPOS>MOLECULE
ASD03090809
  50   54    0    0    0
SMALL
NO_CHARGES


@<TRIPOS>ATOM
   1 N1            -0.0385     1.2405    -0.4475 N.am    
   2 C2            -0.0169    -0.0390     0.0387 C.2     
   3 N3            -1.0817    -0.6545     0.4848 N.2     
   4 C4            -2.2933    -0.0541     0.4939 C.ar    
   5 C5            -2.4086     1.2704     0.0089 C.ar    
   6 C6            -1.1963     1.9425    -0.4824 C.2     
   7 O7            -1.2334     3.0809    -0.9107 O.2     
   8 C8            -3.4411    -0.6968     0.9663 C.ar    
   9 N9            -4.6001    -0.0739     0.9559 N.ar    
  10 C10           -4.7418     1.1666     0.5084 C.ar    
  11 C11           -3.6571     1.8839     0.0193 C.ar    
  12 N12           -6.0005     1.7606     0.5287 N.3     
  13 C13           -7.0074     0.8423     1.0791 C.3     
  14 C14           -8.0060     1.6029     1.9386 C.3     
  15 C15           -8.9791     2.4394     1.1327 C.3     
  16 N16           -8.8000     2.2360    -0.3120 N.3     
  17 C17           -7.6670     3.0392    -0.7963 C.3     
  18 C18           -6.3905     2.2127    -0.8121 C.3     
  19 C19           -8.8019     0.8387    -0.6887 C.3     
  20 C20           -7.6518     0.0708    -0.0581 C.3     
  21 C21            1.2005     1.8570    -0.9280 C.3     
  22 C22            1.2728    -0.7608     0.0602 C.ar    
  23 C23            1.6279    -1.5283     1.1705 C.ar    
  24 C24            2.8329    -2.2003     1.1847 C.ar    
  25 C25            3.6890    -2.1149     0.1017 C.ar    
  26 C26            3.3434    -1.3552    -1.0036 C.ar    
  27 C27            2.1382    -0.6824    -1.0323 C.ar    
  28 Cl28           4.4246    -1.2543    -2.3580 Cl      
  29 H29           -3.3766    -1.7078     1.3407 H       
  30 H30           -3.7800     2.8937    -0.3435 H       
  31 H31           -6.4940     0.1209     1.7147 H       
  32 H32           -8.5713     0.8863     2.5345 H       
  33 H33           -7.4571     2.2591     2.6141 H       
  34 H34           -9.9974     2.1640     1.4073 H       
  35 H35           -8.8214     3.4924     1.3660 H       
  36 H36           -7.8807     3.3892    -1.8062 H       
  37 H37           -7.5301     3.8989    -0.1404 H       
  38 H38           -5.5844     2.8161    -1.2295 H       
  39 H39           -6.5423     1.3409    -1.4484 H       
  40 H40           -9.7429     0.3885    -0.3725 H       
  41 H41           -8.7236     0.7648    -1.7734 H       
  42 H42           -6.8995    -0.1301    -0.8209 H       
  43 H43           -8.0273    -0.8779     0.3255 H       
  44 H44            1.3580     1.5896    -1.9729 H       
  45 H45            1.1260     2.9407    -0.8375 H       
  46 H46            2.0395     1.4994    -0.3310 H       
  47 H47            0.9608    -1.5958     2.0172 H       
  48 H48            3.1085    -2.7941     2.0437 H       
  49 H49            4.6312    -2.6426     0.1181 H       
  50 H50            1.8693    -0.0902    -1.8945 H       
@<TRIPOS>BOND
   1    1    2 1
   2    1   21 1
   3    1    6 am
   4    2    3 2
   5    2   22 1
   6    3    4 1
   7    4    5 ar
   8    4    8 ar
   9    5    6 1
  10    5   11 ar
  11    6    7 2
  12    8    9 ar
  13    8   29 1
  14    9   10 ar
  15   10   11 ar
  16   10   12 1
  17   11   30 1
  18   12   13 1
  19   12   18 1
  20   13   14 1
  21   13   20 1
  22   13   31 1
  23   14   15 1
  24   14   32 1
  25   14   33 1
  26   15   16 1
  27   15   34 1
  28   15   35 1
  29   16   17 1
  30   16   19 1
  31   17   18 1
  32   17   36 1
  33   17   37 1
  34   18   38 1
  35   18   39 1
  36   19   20 1
  37   19   40 1
  38   19   41 1
  39   20   42 1
  40   20   43 1
  41   21   44 1
  42   21   45 1
  43   21   46 1
  44   22   23 ar
  45   22   27 ar
  46   23   24 ar
  47   23   47 1
  48   24   25 ar
  49   24   48 1
  50   25   26 ar
  51   25   49 1
  52   26   27 ar
  53   26   28 1
  54   27   50 1

#	End of record

