#	Name: ASD00431219
#	Creating user name:	WinNT
#	Creation time:	15. 06. 2019 18:35

#	Modifying user name:	WinNT
#	Modification time:	15. 06. 2019 18:35

#	Program:	/corina/corina34_cracker 3.40 0067  02.08.2006

@<TRIPOS>MOLECULE
ASD00431219
  49   52    0    0    0
SMALL
NO_CHARGES


@<TRIPOS>ATOM
   1 C1            -0.3826     1.6819    -0.5696 C.2     
   2 C2            -0.6024     0.2280    -0.8999 C.3     
   3 O3             0.7287     2.0787    -0.2894 O.2     
   4 N4            -1.4198     2.5421    -0.5912 N.am    
   5 C5            -1.2062     3.9554    -0.2702 C.3     
   6 C6            -0.7518     4.7008    -1.5267 C.3     
   7 O7            -3.7077     4.3917    -0.3017 O.3     
   8 N8            -4.5323     5.0078     0.3399 N.2     
   9 C9            -3.9527     5.6265     1.3398 C.2     
  10 N10           -2.6314     5.3372     1.2745 N.2     
  11 C11           -2.4934     4.5566     0.2326 C.2     
  12 S12           -3.8251     7.3066     3.6862 S.3     
  13 C13           -5.3273     7.9477     4.1907 C.2     
  14 N14           -6.2759     7.5477     3.4007 N.2     
  15 C15           -5.9340     6.7616     2.4041 C.2     
  16 C16           -4.6154     6.4788     2.3467 C.2     
  17 O17           -5.5026     8.7570     5.2624 O.3     
  18 C18           -6.7730     9.1001     5.6017 C.ar    
  19 C19           -7.5887     8.1857     6.2503 C.ar    
  20 C20           -8.8854     8.5396     6.5958 C.ar    
  21 C21           -9.3619     9.8090     6.2907 C.ar    
  22 C22           -8.5461    10.7170     5.6444 C.ar    
  23 C23           -7.2527    10.3680     5.3043 C.ar    
  24 N24           -9.7105     7.6212     7.2489 N.pl3   
  25 C25          -11.0791     7.9959     7.6132 C.3     
  26 C26          -11.7615     6.8181     8.3118 C.3     
  27 C27          -13.1644     7.0485     8.8772 C.3     
  28 C28          -12.9764     6.1948     7.6215 C.3     
  29 H29            0.3453    -0.3066    -0.8353 H       
  30 H30           -1.3112    -0.2022    -0.1923 H       
  31 H31           -1.0003     0.1412    -1.9109 H       
  32 H32           -2.3079     2.2255    -0.8193 H       
  33 H33           -0.4398     4.0412     0.5002 H       
  34 H34           -1.5181     4.6150    -2.2971 H       
  35 H35           -0.5928     5.7523    -1.2879 H       
  36 H36            0.1793     4.2660    -1.8903 H       
  37 H37           -6.6476     6.3749     1.6916 H       
  38 H38           -7.2159     7.1999     6.4859 H       
  39 H39          -10.3710    10.0855     6.5587 H       
  40 H40           -8.9182    11.7029     5.4081 H       
  41 H41           -6.6159    11.0816     4.8026 H       
  42 H42           -9.3773     6.7354     7.4613 H       
  43 H43          -11.0543     8.8528     8.2864 H       
  44 H44          -11.6361     8.2568     6.7133 H       
  45 H45          -11.0994     6.1516     8.8645 H       
  46 H46          -13.4253     6.5333     9.8016 H       
  47 H47          -13.6012     8.0392     8.7515 H       
  48 H48          -13.2895     6.6239     6.6697 H       
  49 H49          -13.1136     5.1180     7.7199 H       
@<TRIPOS>BOND
   1    1    2 1
   2    1    3 2
   3    1    4 am
   4    2   29 1
   5    2   30 1
   6    2   31 1
   7    4    5 1
   8    4   32 1
   9    5    6 1
  10    5   11 1
  11    5   33 1
  12    6   34 1
  13    6   35 1
  14    6   36 1
  15    7    8 1
  16    7   11 1
  17    8    9 2
  18    9   10 1
  19    9   16 1
  20   10   11 2
  21   12   13 1
  22   12   16 1
  23   13   14 2
  24   13   17 1
  25   14   15 1
  26   15   16 2
  27   15   37 1
  28   17   18 1
  29   18   19 ar
  30   18   23 ar
  31   19   20 ar
  32   19   38 1
  33   20   21 ar
  34   20   24 1
  35   21   22 ar
  36   21   39 1
  37   22   23 ar
  38   22   40 1
  39   23   41 1
  40   24   25 1
  41   24   42 1
  42   25   26 1
  43   25   43 1
  44   25   44 1
  45   26   27 1
  46   26   28 1
  47   26   45 1
  48   27   28 1
  49   27   46 1
  50   27   47 1
  51   28   48 1
  52   28   49 1

#	End of record

