#	Name: ASD08170051
#	Creating user name:	WinNT
#	Creation time:	15. 06. 2019 21:17

#	Modifying user name:	WinNT
#	Modification time:	15. 06. 2019 21:17

#	Program:	/corina/corina34_cracker 3.40 0067  02.08.2006

@<TRIPOS>MOLECULE
ASD08170051
  52   55    0    0    0
SMALL
NO_CHARGES


@<TRIPOS>ATOM
   1 C1            -0.0187     1.5266     0.0104 C.3     
   2 C2             0.0021    -0.0041     0.0020 C.3     
   3 C3            -1.4083    -0.5285     0.0658 C.2     
   4 C4            -2.3820     0.1598     0.7123 C.2     
   5 C5            -2.1120     1.3974     1.3228 C.2     
   6 C6            -0.7334     1.9998     1.2801 C.3     
   7 C7            -1.7368    -1.7986    -0.5913 C.ar    
   8 C8            -3.0896    -2.1195    -0.8172 C.ar    
   9 N9            -4.0608    -1.2224    -0.3889 N.pl3   
  10 C10           -3.7811    -0.4034     0.7965 C.3     
  11 C11           -0.7381    -2.6882    -0.9947 C.ar    
  12 C12           -1.0894    -3.8675    -1.6157 C.ar    
  13 C13           -2.4226    -4.1752    -1.8421 C.ar    
  14 C14           -3.4222    -3.3067    -1.4462 C.ar    
  15 C15           -3.9046    -1.2548     2.0339 C.ar    
  16 C16           -4.4959    -0.7367     3.1713 C.ar    
  17 C17           -4.6106    -1.5148     4.3076 C.ar    
  18 C18           -4.1313    -2.8192     4.3056 C.ar    
  19 C19           -3.5384    -3.3359     3.1608 C.ar    
  20 C20           -3.4313    -2.5542     2.0272 C.ar    
  21 C21            1.4154     2.0595    -0.0004 C.3     
  22 C22           -0.7653     2.0367    -1.2237 C.3     
  23 O23           -3.0058     1.9899     1.8937 O.2     
  24 N24           -4.2451    -3.6088     5.4527 N.3     
  25 C25           -5.0410    -4.8142     5.1852 C.3     
  26 C26           -2.9211    -3.9594     5.9840 C.3     
  27 Br27          -5.4183    -0.8053     5.8633 Br      
  28 H28            0.4790    -0.3556    -0.9129 H       
  29 H29            0.5626    -0.3642     0.8647 H       
  30 H30           -0.1690     1.6807     2.1562 H       
  31 H31           -0.8109     3.0871     1.2713 H       
  32 H32           -4.9034    -1.1394    -0.8623 H       
  33 H33           -4.4986     0.4154     0.8486 H       
  34 H34            0.3018    -2.4535    -0.8215 H       
  35 H35           -0.3200    -4.5579    -1.9284 H       
  36 H36           -2.6821    -5.1018    -2.3325 H       
  37 H37           -4.4581    -3.5536    -1.6261 H       
  38 H38           -4.8681     0.2771     3.1718 H       
  39 H39           -3.1644    -4.3491     3.1560 H       
  40 H40           -2.9707    -2.9558     1.1367 H       
  41 H41            1.9265     1.7093    -0.8972 H       
  42 H42            1.3981     3.1494     0.0056 H       
  43 H43            1.9435     1.6997     0.8827 H       
  44 H44           -1.7883     1.6606    -1.2108 H       
  45 H45           -0.7788     3.1266    -1.2155 H       
  46 H46           -0.2608     1.6863    -2.1242 H       
  47 H47           -4.5596    -5.4013     4.4031 H       
  48 H48           -5.1138    -5.4107     6.0946 H       
  49 H49           -6.0402    -4.5249     4.8595 H       
  50 H50           -2.3792    -3.0487     6.2389 H       
  51 H51           -3.0389    -4.5740     6.8764 H       
  52 H52           -2.3630    -4.5155     5.2308 H       
@<TRIPOS>BOND
   1    1    2 1
   2    1   21 1
   3    1   22 1
   4    1    6 1
   5    2    3 1
   6    2   28 1
   7    2   29 1
   8    3    4 2
   9    3    7 1
  10    4    5 1
  11    4   10 1
  12    5    6 1
  13    5   23 2
  14    6   30 1
  15    6   31 1
  16    7    8 ar
  17    7   11 ar
  18    8    9 1
  19    8   14 ar
  20    9   10 1
  21    9   32 1
  22   10   15 1
  23   10   33 1
  24   11   12 ar
  25   11   34 1
  26   12   13 ar
  27   12   35 1
  28   13   14 ar
  29   13   36 1
  30   14   37 1
  31   15   16 ar
  32   15   20 ar
  33   16   17 ar
  34   16   38 1
  35   17   18 ar
  36   17   27 1
  37   18   19 ar
  38   18   24 1
  39   19   20 ar
  40   19   39 1
  41   20   40 1
  42   21   41 1
  43   21   42 1
  44   21   43 1
  45   22   44 1
  46   22   45 1
  47   22   46 1
  48   24   25 1
  49   24   26 1
  50   25   47 1
  51   25   48 1
  52   25   49 1
  53   26   50 1
  54   26   51 1
  55   26   52 1

#	End of record

