#	Name: ASD00071100
#	Creating user name:	WinNT
#	Creation time:	15. 06. 2019 18:30

#	Modifying user name:	WinNT
#	Modification time:	15. 06. 2019 18:30

#	Program:	/corina/corina34_cracker 3.40 0067  02.08.2006

@<TRIPOS>MOLECULE
ASD00071100
  41   43    0    0    0
SMALL
NO_CHARGES


@<TRIPOS>ATOM
   1 N1             2.2091     0.6751    -1.5648 N.2     
   2 C2             2.2984    -0.1319    -0.5358 C.2     
   3 N3             1.1649    -0.6854     0.0126 N.pl3   
   4 C4            -0.0884     0.0831    -0.0329 C.3     
   5 C5            -0.1790     0.7463    -1.3862 C.ar    
   6 C6            -1.4035     1.0798    -1.9230 C.ar    
   7 C7            -1.4705     1.6987    -3.1606 C.ar    
   8 C8            -0.3115     1.9845    -3.8602 C.ar    
   9 C9             0.9193     1.6505    -3.3344 C.ar    
  10 C10            0.9951     1.0217    -2.0899 C.ar    
  11 N11            3.5284    -0.4262    -0.0034 N.pl3   
  12 C12            1.2050    -2.0138     0.6290 C.3     
  13 C13            0.7654    -3.0473    -0.3758 C.ar    
  14 C14            1.6804    -3.5769    -1.2727 C.ar    
  15 C15            1.2731    -4.5285    -2.1970 C.ar    
  16 C16           -0.0430    -4.9482    -2.2240 C.ar    
  17 C17           -0.9569    -4.4219    -1.3311 C.ar    
  18 C18           -0.5533    -3.4743    -0.4011 C.ar    
  19 O19           -1.4512    -2.9611     0.4805 O.3     
  20 C20           -2.7925    -3.4470     0.3972 C.3     
  21 O21            2.9749    -3.1641    -1.2470 O.3     
  22 C22            3.8624    -3.7523    -2.2001 C.3     
  23 Br23          -2.9911     0.6924    -0.9714 Br      
  24 H24           -0.9368    -0.5868     0.1068 H       
  25 H25           -0.0841     0.8417     0.7498 H       
  26 H26           -2.4308     1.9586    -3.5809 H       
  27 H27           -0.3708     2.4711    -4.8226 H       
  28 H28            1.8218     1.8750    -3.8835 H       
  29 H29            4.3344    -0.1089    -0.4400 H       
  30 H30            3.5919    -0.9516     0.8095 H       
  31 H31            2.2220    -2.2328     0.9543 H       
  32 H32            0.5358    -2.0356     1.4891 H       
  33 H33            1.9854    -4.9410    -2.8962 H       
  34 H34           -0.3582    -5.6886    -2.9443 H       
  35 H35           -1.9851    -4.7516    -1.3541 H       
  36 H36           -3.1965    -3.2306    -0.5918 H       
  37 H37           -2.7999    -4.5239     0.5650 H       
  38 H38           -3.4042    -2.9570     1.1547 H       
  39 H39            4.8615    -3.3361    -2.0713 H       
  40 H40            3.8959    -4.8311    -2.0478 H       
  41 H41            3.5068    -3.5385    -3.2080 H       
@<TRIPOS>BOND
   1    1    2 2
   2    1   10 1
   3    2    3 1
   4    2   11 1
   5    3    4 1
   6    3   12 1
   7    4    5 1
   8    4   24 1
   9    4   25 1
  10    5    6 ar
  11    5   10 ar
  12    6    7 ar
  13    6   23 1
  14    7    8 ar
  15    7   26 1
  16    8    9 ar
  17    8   27 1
  18    9   10 ar
  19    9   28 1
  20   11   29 1
  21   11   30 1
  22   12   13 1
  23   12   31 1
  24   12   32 1
  25   13   14 ar
  26   13   18 ar
  27   14   15 ar
  28   14   21 1
  29   15   16 ar
  30   15   33 1
  31   16   17 ar
  32   16   34 1
  33   17   18 ar
  34   17   35 1
  35   18   19 1
  36   19   20 1
  37   20   36 1
  38   20   37 1
  39   20   38 1
  40   21   22 1
  41   22   39 1
  42   22   40 1
  43   22   41 1

#	End of record

