#	Name: ASD04882330
#	Creating user name:	WinNT
#	Creation time:	15. 06. 2019 20:54

#	Modifying user name:	WinNT
#	Modification time:	15. 06. 2019 20:54

#	Program:	/corina/corina34_cracker 3.40 0067  02.08.2006

@<TRIPOS>MOLECULE
ASD04882330
  75   80    0    0    0
SMALL
NO_CHARGES


@<TRIPOS>ATOM
   1 N1             0.9437     1.4096     1.1653 N.am    
   2 C2             0.7295     0.0522     0.8927 C.ar    
   3 C3            -0.5717    -0.4565     0.8536 C.ar    
   4 C4            -0.7857    -1.8032     0.5833 C.ar    
   5 C5             0.2830    -2.6409     0.3535 C.ar    
   6 C6             1.5868    -2.1389     0.3916 C.ar    
   7 C7             1.8045    -0.7839     0.6567 C.ar    
   8 N8            -1.6552     0.3868     1.0862 N.3     
   9 C9            -2.5546     0.4212    -0.0755 C.3     
  10 C10           -2.3820    -0.0120     2.2996 C.3     
  11 C11           -3.5139     0.9837     2.5635 C.3     
  12 N12           -4.4133     1.0182     1.4018 N.3     
  13 C13           -3.6865     1.4170     0.1884 C.3     
  14 C14            2.7315    -3.0366     0.1460 C.2     
  15 O15            3.8655    -2.5990     0.1794 O.2     
  16 C16            2.0315     2.0328     0.6705 C.2     
  17 C17            2.2048     3.4749     0.8710 C.2     
  18 O18            2.8700     1.3985     0.0573 O.2     
  19 N19            2.5203    -4.3418    -0.1153 N.am    
  20 C20            3.2540     4.2267     0.4250 C.2     
  21 C21            3.0098     5.5457     0.8385 C.2     
  22 C22            1.8372     5.5414     1.5101 C.2     
  23 O23            1.3527     4.2927     1.5232 O.3     
  24 C24            3.6490    -5.2139    -0.4495 C.3     
  25 C25            4.3568    -4.8946    -1.7411 C.ar    
  26 C26           -5.5000     1.8640     1.6351 C.ar    
  27 C27           -5.2891     3.2098     1.9059 C.ar    
  28 C28           -6.7948     1.3622     1.5912 C.ar    
  29 C29           -7.8670     2.2011     1.8223 C.ar    
  30 C30           -7.6530     3.5396     2.0969 C.ar    
  31 C31           -6.3660     4.0434     2.1362 C.ar    
  32 C32           -7.0289    -0.0960     1.2912 C.3     
  33 C33            5.5217    -5.5629    -2.0732 C.ar    
  34 C34            6.1781    -5.2754    -3.2570 C.ar    
  35 C35            5.6737    -4.3197    -4.1143 C.ar    
  36 C36            4.4985    -3.6420    -3.7854 C.ar    
  37 C37            3.8386    -3.9404    -2.5924 C.ar    
  38 C38            3.9525    -2.6160    -4.6992 C.2     
  39 N39            4.5896    -2.3333    -5.8528 N.am    
  40 O40            2.9289    -2.0275    -4.4103 O.2     
  41 C41            4.4964    -5.7474     0.7073 C.3     
  42 C42            3.5488    -6.6858    -0.0440 C.3     
  43 H43            0.3071     1.9018     1.7069 H       
  44 H44           -1.7923    -2.1935     0.5537 H       
  45 H45            0.1134    -3.6868     0.1441 H       
  46 H46            2.8108    -0.3931     0.6867 H       
  47 H47           -1.9961     0.7313    -0.9587 H       
  48 H48           -2.9743    -0.5712    -0.2401 H       
  49 H49           -2.7997    -1.0094     2.1620 H       
  50 H50           -1.6976    -0.0179     3.1480 H       
  51 H51           -4.0724     0.6737     3.4467 H       
  52 H52           -3.0942     1.9761     2.7281 H       
  53 H53           -3.2688     2.4143     0.3260 H       
  54 H54           -4.3709     1.4229    -0.6600 H       
  55 H55            1.6210    -4.7038    -0.0820 H       
  56 H56            4.1067     3.8746    -0.1364 H       
  57 H57            3.6405     6.4029     0.6544 H       
  58 H58            1.3663     6.4035     1.9589 H       
  59 H59           -4.2840     3.6040     1.9367 H       
  60 H60           -8.8737     1.8116     1.7884 H       
  61 H61           -8.4934     4.1938     2.2766 H       
  62 H62           -6.2025     5.0892     2.3509 H       
  63 H63           -7.0363    -0.6620     2.2227 H       
  64 H64           -7.9881    -0.2137     0.7869 H       
  65 H65           -6.2318    -0.4669     0.6469 H       
  66 H66            5.9207    -6.3121    -1.4054 H       
  67 H67            7.0874    -5.8002    -3.5101 H       
  68 H68            6.1872    -4.0960    -5.0377 H       
  69 H69            2.9288    -3.4199    -2.3323 H       
  70 H70            5.4064    -2.8030    -6.0834 H       
  71 H71            4.2314    -1.6602    -6.4523 H       
  72 H72            5.5658    -5.8678     0.5341 H       
  73 H73            4.2141    -5.4495     1.7171 H       
  74 H74            2.6432    -7.0053     0.4717 H       
  75 H75            3.9951    -7.4233    -0.7112 H       
@<TRIPOS>BOND
   1    1    2 1
   2    1   16 am
   3    1   43 1
   4    2    3 ar
   5    2    7 ar
   6    3    4 ar
   7    3    8 1
   8    4    5 ar
   9    4   44 1
  10    5    6 ar
  11    5   45 1
  12    6    7 ar
  13    6   14 1
  14    7   46 1
  15    8    9 1
  16    8   10 1
  17    9   13 1
  18    9   47 1
  19    9   48 1
  20   10   11 1
  21   10   49 1
  22   10   50 1
  23   11   12 1
  24   11   51 1
  25   11   52 1
  26   12   13 1
  27   12   26 1
  28   13   53 1
  29   13   54 1
  30   14   15 2
  31   14   19 am
  32   16   18 2
  33   16   17 1
  34   17   20 2
  35   17   23 1
  36   19   24 1
  37   19   55 1
  38   20   21 1
  39   20   56 1
  40   21   22 2
  41   21   57 1
  42   22   23 1
  43   22   58 1
  44   24   25 1
  45   24   41 1
  46   24   42 1
  47   25   33 ar
  48   25   37 ar
  49   26   27 ar
  50   26   28 ar
  51   27   31 ar
  52   27   59 1
  53   28   29 ar
  54   28   32 1
  55   29   30 ar
  56   29   60 1
  57   30   31 ar
  58   30   61 1
  59   31   62 1
  60   32   63 1
  61   32   64 1
  62   32   65 1
  63   33   34 ar
  64   33   66 1
  65   34   35 ar
  66   34   67 1
  67   35   36 ar
  68   35   68 1
  69   36   37 ar
  70   36   38 1
  71   37   69 1
  72   38   39 am
  73   38   40 2
  74   39   70 1
  75   39   71 1
  76   41   42 1
  77   41   72 1
  78   41   73 1
  79   42   74 1
  80   42   75 1

#	End of record

