#	Name: ASD01230445
#	Creating user name:	WinNT
#	Creation time:	15. 06. 2019 19:14

#	Modifying user name:	WinNT
#	Modification time:	15. 06. 2019 19:14

#	Program:	/corina/corina34_cracker 3.40 0067  02.08.2006

@<TRIPOS>MOLECULE
ASD01230445
  39   41    0    0    0
SMALL
NO_CHARGES


@<TRIPOS>ATOM
   1 C1            -0.0493     1.3248    -0.0095 C.ar    
   2 C2             0.0403    -0.0632     0.0250 C.ar    
   3 C3             1.2895    -0.6567     0.0283 C.ar    
   4 C4             2.4118     0.1609    -0.0030 C.ar    
   5 C5             2.2493     1.5311    -0.0363 C.ar    
   6 N6             1.0447     2.0700    -0.0386 N.ar    
   7 N7            -1.2984     1.9345    -0.0191 N.pl3   
   8 C8            -1.2069    -0.9084     0.0587 C.3     
   9 C9            -1.3083    -1.7197    -1.2346 C.3     
  10 C10           -2.5746    -2.5778    -1.2004 C.3     
  11 C11           -2.5131    -3.5301    -0.0044 C.3     
  12 C12           -2.4117    -2.7189     1.2888 C.3     
  13 C13           -1.1455    -1.8608     1.2546 C.3     
  14 C14           -3.7603    -4.3753     0.0293 C.ar    
  15 C15           -3.6649    -5.7518    -0.0550 C.ar    
  16 C16           -4.8089    -6.5271    -0.0241 C.ar    
  17 C17           -6.0484    -5.9260     0.0914 C.ar    
  18 C18           -6.1437    -4.5496     0.1766 C.ar    
  19 C19           -4.9994    -3.7745     0.1501 C.ar    
  20 H20            1.3900    -1.7316     0.0551 H       
  21 H21            3.4016    -0.2712    -0.0009 H       
  22 H22            3.1194     2.1705    -0.0607 H       
  23 H23           -2.1010     1.3947    -0.0935 H       
  24 H24           -1.3676     2.8996     0.0486 H       
  25 H25           -2.0805    -0.2634     0.1524 H       
  26 H26           -1.3521    -1.0412    -2.0866 H       
  27 H27           -0.4347    -2.3647    -1.3283 H       
  28 H28           -3.4482    -1.9328    -1.1066 H       
  29 H29           -2.6468    -3.1558    -2.1217 H       
  30 H30           -1.6395    -4.1752    -0.0981 H       
  31 H31           -3.2853    -2.0738     1.3825 H       
  32 H32           -2.3679    -3.3973     2.1408 H       
  33 H33           -0.2718    -2.5058     1.1609 H       
  34 H34           -1.0732    -1.2828     2.1759 H       
  35 H35           -2.6966    -6.2215    -0.1453 H       
  36 H36           -4.7344    -7.6025    -0.0907 H       
  37 H37           -6.9422    -6.5317     0.1148 H       
  38 H38           -7.1121    -4.0799     0.2666 H       
  39 H39           -5.0736    -2.6993     0.2204 H       
@<TRIPOS>BOND
   1    1    2 ar
   2    1    6 ar
   3    1    7 1
   4    2    3 ar
   5    2    8 1
   6    3    4 ar
   7    3   20 1
   8    4    5 ar
   9    4   21 1
  10    5    6 ar
  11    5   22 1
  12    7   23 1
  13    7   24 1
  14    8    9 1
  15    8   13 1
  16    8   25 1
  17    9   10 1
  18    9   26 1
  19    9   27 1
  20   10   11 1
  21   10   28 1
  22   10   29 1
  23   11   12 1
  24   11   14 1
  25   11   30 1
  26   12   13 1
  27   12   31 1
  28   12   32 1
  29   13   33 1
  30   13   34 1
  31   14   15 ar
  32   14   19 ar
  33   15   16 ar
  34   15   35 1
  35   16   17 ar
  36   16   36 1
  37   17   18 ar
  38   17   37 1
  39   18   19 ar
  40   18   38 1
  41   19   39 1

#	End of record

