#	Name: ASD06710049
#	Creating user name:	WinNT
#	Creation time:	15. 06. 2019 21:08

#	Modifying user name:	WinNT
#	Modification time:	15. 06. 2019 21:08

#	Program:	/corina/corina34_cracker 3.40 0067  02.08.2006

@<TRIPOS>MOLECULE
ASD06710049
  60   62    0    0    0
SMALL
NO_CHARGES


@<TRIPOS>ATOM
   1 N1            -0.1465     3.3190    -0.8516 N.am    
   2 C2             0.1393     2.7216     0.3221 C.2     
   3 C3            -1.1972     2.3192     0.9133 C.3     
   4 N4            -2.1724     2.7799    -0.0901 N.am    
   5 C5            -1.4644     3.3542    -1.0794 C.2     
   6 C6            -3.5570     2.6502    -0.0252 C.ar    
   7 C7            -4.3515     3.7792     0.1474 C.ar    
   8 C8            -4.1421     1.3911    -0.1389 C.ar    
   9 C9            -5.4986     1.2539    -0.0769 C.ar    
  10 C10           -6.3104     2.3818     0.1018 C.ar    
  11 C11           -5.7233     3.6523     0.2119 C.ar    
  12 C12           -7.7680     2.2363     0.1681 C.2     
  13 O13           -8.4688     3.2145     0.3229 O.2     
  14 C14           -8.3955     0.8718     0.0440 C.3     
  15 N15           -9.8562     0.9938     0.1418 N.3     
  16 C16          -10.5148    -0.2715    -0.2091 C.3     
  17 F17           -6.4985     4.7453     0.3843 F       
  18 C18            0.8151     3.8428    -1.7211 C.ar    
  19 C19            1.5581     4.9558    -1.3439 C.ar    
  20 C20            1.0299     3.2458    -2.9586 C.ar    
  21 C21            1.9760     3.7587    -3.8176 C.ar    
  22 C22            2.7210     4.8809    -3.4443 C.ar    
  23 C23            2.5063     5.4746    -2.1977 C.ar    
  24 O24            1.2371     2.5425     0.8044 O.2     
  25 C25           -1.2757     0.8007     1.0826 C.3     
  26 C26           -1.4280     3.0241     2.2515 C.3     
  27 S27           -2.1703     4.0435    -2.4785 S.2     
  28 C28          -10.2584     1.4429     1.4814 C.3     
  29 C29          -10.4830    -0.4592    -1.7272 C.3     
  30 C30          -11.7036     1.9433     1.4391 C.3     
  31 C31            3.3065     6.6850    -1.7906 C.3     
  32 F32            2.9150     7.0943    -0.5114 F       
  33 F33            4.6678     6.3624    -1.7807 F       
  34 F34            3.0797     7.7221    -2.7018 F       
  35 C35            3.7063     5.4170    -4.3346 C.1     
  36 N36            4.4878     5.8423    -5.0408 N.1     
  37 H37           -3.8944     4.7541     0.2311 H       
  38 H38           -3.5194     0.5196    -0.2771 H       
  39 H39           -5.9466     0.2753    -0.1661 H       
  40 H40           -8.1310     0.4366    -0.9197 H       
  41 H41           -8.0301     0.2296     0.8453 H       
  42 H42           -9.9915    -1.0987     0.2704 H       
  43 H43          -11.5497    -0.2494     0.1327 H       
  44 H44            1.3914     5.4143    -0.3804 H       
  45 H45            0.4541     2.3785    -3.2462 H       
  46 H46            2.1425     3.2943    -4.7783 H       
  47 H47           -0.4962     0.4709     1.7695 H       
  48 H48           -2.2522     0.5298     1.4842 H       
  49 H49           -1.1346     0.3194     0.1149 H       
  50 H50           -1.3938     4.1036     2.1042 H       
  51 H51           -2.4037     2.7422     2.6472 H       
  52 H52           -0.6509     2.7288     2.9565 H       
  53 H53          -10.1823     0.6110     2.1816 H       
  54 H54           -9.6033     2.2516     1.8055 H       
  55 H55          -11.0555    -1.3470    -1.9956 H       
  56 H56          -10.9198     0.4147    -2.2106 H       
  57 H57           -9.4509    -0.5789    -2.0569 H       
  58 H58          -12.0082     2.2591     2.4369 H       
  59 H59          -11.7759     2.7872     0.7530 H       
  60 H60          -12.3563     1.1401     1.0971 H       
@<TRIPOS>BOND
   1    1    2 am
   2    1   18 1
   3    1    5 am
   4    2    3 1
   5    2   24 2
   6    3    4 1
   7    3   25 1
   8    3   26 1
   9    4    5 am
  10    4    6 1
  11    5   27 2
  12    6    7 ar
  13    6    8 ar
  14    7   11 ar
  15    7   37 1
  16    8    9 ar
  17    8   38 1
  18    9   10 ar
  19    9   39 1
  20   10   11 ar
  21   10   12 1
  22   11   17 1
  23   12   13 2
  24   12   14 1
  25   14   15 1
  26   14   40 1
  27   14   41 1
  28   15   16 1
  29   15   28 1
  30   16   29 1
  31   16   42 1
  32   16   43 1
  33   18   19 ar
  34   18   20 ar
  35   19   23 ar
  36   19   44 1
  37   20   21 ar
  38   20   45 1
  39   21   22 ar
  40   21   46 1
  41   22   23 ar
  42   22   35 1
  43   23   31 1
  44   25   47 1
  45   25   48 1
  46   25   49 1
  47   26   50 1
  48   26   51 1
  49   26   52 1
  50   28   30 1
  51   28   53 1
  52   28   54 1
  53   29   55 1
  54   29   56 1
  55   29   57 1
  56   30   58 1
  57   30   59 1
  58   30   60 1
  59   31   32 1
  60   31   33 1
  61   31   34 1
  62   35   36 3

#	End of record

