#	Name: ASD00170747
#	Creating user name:	WinNT
#	Creation time:	15. 06. 2019 18:32

#	Modifying user name:	WinNT
#	Modification time:	15. 06. 2019 18:32

#	Program:	/corina/corina34_cracker 3.40 0067  02.08.2006

@<TRIPOS>MOLECULE
ASD00170747
  39   41    0    0    0
SMALL
NO_CHARGES


@<TRIPOS>ATOM
   1 C1            -0.0165     1.2108     0.0012 C.2     
   2 O2             0.6159     1.0895    -1.0325 O.2     
   3 C3             0.5118     0.6459     1.2619 C.ar    
   4 C4             1.6764    -0.1240     1.2509 C.ar    
   5 C5             2.1646    -0.6480     2.4305 C.ar    
   6 C6             1.5002    -0.4112     3.6241 C.ar    
   7 C7             0.3446     0.3513     3.6399 C.ar    
   8 C8            -0.1490     0.8852     2.4678 C.ar    
   9 Cl9            2.1193    -1.0738     5.1045 Cl      
  10 Cl10           3.6125    -1.6055     2.4196 Cl      
  11 C11           -1.4080     3.2840     0.1064 C.2     
  12 C12           -1.2942     1.9197    -0.0029 C.2     
  13 C13           -2.5834     1.2569    -0.1240 C.2     
  14 C14           -3.6102     2.1130    -0.1038 C.2     
  15 S15           -3.0421     3.7641     0.0642 S.3     
  16 C16           -2.7418    -0.2109    -0.2559 C.ar    
  17 C17           -3.6329    -0.8956     0.5695 C.ar    
  18 C18           -3.7761    -2.2621     0.4422 C.ar    
  19 C19           -3.0377    -2.9527    -0.5020 C.ar    
  20 C20           -2.1517    -2.2789    -1.3235 C.ar    
  21 C21           -2.0046    -0.9115    -1.2096 C.ar    
  22 C22           -1.3504    -3.0386    -2.3489 C.3     
  23 F23           -1.6732    -4.3981    -2.2793 F       
  24 F24           -1.6485    -2.5534    -3.6268 F       
  25 F25            0.0146    -2.8698    -2.0927 F       
  26 C26           -4.7383    -3.0037     1.3339 C.3     
  27 F27           -5.9971    -3.0501     0.7251 F       
  28 F28           -4.2724    -4.3065     1.5414 F       
  29 F29           -4.8389    -2.3431     2.5630 F       
  30 N30           -0.3417     4.1496     0.2386 N.pl3   
  31 H31            2.1939    -0.3093     0.3213 H       
  32 H32           -0.1689     0.5321     4.5726 H       
  33 H33           -1.0481     1.4834     2.4824 H       
  34 H34           -4.6487     1.8267    -0.1805 H       
  35 H35           -4.2096    -0.3575     1.3073 H       
  36 H36           -3.1531    -4.0222    -0.5981 H       
  37 H37           -1.3165    -0.3857    -1.8549 H       
  38 H38            0.5579     3.7998     0.3346 H       
  39 H39           -0.4917     5.1079     0.2356 H       
@<TRIPOS>BOND
   1    1    2 2
   2    1    3 1
   3    1   12 1
   4    3    4 ar
   5    3    8 ar
   6    4    5 ar
   7    4   31 1
   8    5    6 ar
   9    5   10 1
  10    6    7 ar
  11    6    9 1
  12    7    8 ar
  13    7   32 1
  14    8   33 1
  15   11   12 2
  16   11   15 1
  17   11   30 1
  18   12   13 1
  19   13   14 2
  20   13   16 1
  21   14   15 1
  22   14   34 1
  23   16   17 ar
  24   16   21 ar
  25   17   18 ar
  26   17   35 1
  27   18   19 ar
  28   18   26 1
  29   19   20 ar
  30   19   36 1
  31   20   21 ar
  32   20   22 1
  33   21   37 1
  34   22   23 1
  35   22   24 1
  36   22   25 1
  37   26   27 1
  38   26   28 1
  39   26   29 1
  40   30   38 1
  41   30   39 1

#	End of record

