#	Name: ASD09080079
#	Creating user name:	WinNT
#	Creation time:	15. 06. 2019 21:20

#	Modifying user name:	WinNT
#	Modification time:	15. 06. 2019 21:20

#	Program:	/corina/corina34_cracker 3.40 0067  02.08.2006

@<TRIPOS>MOLECULE
ASD09080079
  43   43    0    0    0
SMALL
NO_CHARGES


@<TRIPOS>ATOM
   1 C1            -0.0167     1.3831     0.0096 C.ar    
   2 C2             0.0021    -0.0041     0.0020 C.ar    
   3 C3            -1.1854    -0.7098     0.0095 C.ar    
   4 C4            -2.3921    -0.0349     0.0246 C.ar    
   5 C5            -2.4135     1.3476     0.0318 C.ar    
   6 C6            -1.2287     2.0579     0.0306 C.ar    
   7 O7             1.1501     2.0797     0.0022 O.3     
   8 C8            -3.6860    -0.8073     0.0328 C.3     
   9 C9            -4.1102    -1.0765     1.4779 C.3     
  10 N10           -3.1296    -1.9562     2.1189 N.am    
  11 O11           -2.0823    -2.7479     4.0477 O.3     
  12 C12           -1.9791    -2.6766     5.4943 C.3     
  13 C13           -3.3274    -3.0387     6.1203 C.3     
  14 C14           -0.9115    -3.6598     5.9784 C.3     
  15 C15           -1.5896    -1.2561     5.9084 C.3     
  16 C16           -2.9835    -1.9394     3.4586 C.2     
  17 O17           -3.6651    -1.1946     4.1348 O.2     
  18 C18           -5.4632    -1.7400     1.4891 C.2     
  19 O19           -5.5949    -2.8353     1.9818 O.2     
  20 O20           -6.5221    -1.1142     0.9515 O.3     
  21 O21           -7.6259    -1.7204     0.9916 O.3     
  22 C22           -8.7081    -0.9969     0.4022 C.3     
  23 H23            0.9443    -0.5317    -0.0101 H       
  24 H24           -1.1713    -1.7897     0.0032 H       
  25 H25           -3.3573     1.8725     0.0432 H       
  26 H26           -1.2459     3.1378     0.0362 H       
  27 H27            1.4794     2.2860    -0.8832 H       
  28 H28           -4.4590    -0.2266    -0.4706 H       
  29 H29           -3.5468    -1.7550    -0.4875 H       
  30 H30           -4.1633    -0.1338     2.0226 H       
  31 H31           -2.5856    -2.5507     1.5791 H       
  32 H32           -3.6049    -4.0507     5.8252 H       
  33 H33           -3.2499    -2.9852     7.2062 H       
  34 H34           -4.0880    -2.3383     5.7753 H       
  35 H35            0.0491    -3.4018     5.5325 H       
  36 H36           -0.8340    -3.6062     7.0644 H       
  37 H37           -1.1890    -4.6717     5.6834 H       
  38 H38           -2.3502    -0.5557     5.5634 H       
  39 H39           -1.5121    -1.2026     6.9943 H       
  40 H40           -0.6291    -0.9981     5.4624 H       
  41 H41           -8.8415    -0.0511     0.9272 H       
  42 H42           -8.4861    -0.8020    -0.6470 H       
  43 H43           -9.6223    -1.5859     0.4768 H       
@<TRIPOS>BOND
   1    1    2 ar
   2    1    7 1
   3    1    6 ar
   4    2    3 ar
   5    2   23 1
   6    3    4 ar
   7    3   24 1
   8    4    5 ar
   9    4    8 1
  10    5    6 ar
  11    5   25 1
  12    6   26 1
  13    7   27 1
  14    8    9 1
  15    8   28 1
  16    8   29 1
  17    9   10 1
  18    9   18 1
  19    9   30 1
  20   10   16 am
  21   10   31 1
  22   11   12 1
  23   11   16 1
  24   12   13 1
  25   12   14 1
  26   12   15 1
  27   13   32 1
  28   13   33 1
  29   13   34 1
  30   14   35 1
  31   14   36 1
  32   14   37 1
  33   15   38 1
  34   15   39 1
  35   15   40 1
  36   16   17 2
  37   18   19 2
  38   18   20 1
  39   20   21 1
  40   21   22 1
  41   22   41 1
  42   22   42 1
  43   22   43 1

#	End of record

