#	Name: ASD01900838
#	Creating user name:	WinNT
#	Creation time:	15. 06. 2019 19:52

#	Modifying user name:	WinNT
#	Modification time:	15. 06. 2019 19:52

#	Program:	/corina/corina34_cracker 3.40 0067  02.08.2006

@<TRIPOS>MOLECULE
ASD01900838
  44   48    0    0    0
SMALL
NO_CHARGES


@<TRIPOS>ATOM
   1 N1            -0.0184     1.3106     0.0344 N.ar    
   2 C2             0.0871     0.0004     0.0720 C.ar    
   3 C3            -0.7588    -0.8036    -0.6757 C.ar    
   4 C4            -1.7276    -0.2144    -1.4725 C.ar    
   5 C5            -1.8158     1.1689    -1.4926 C.ar    
   6 C6            -0.9324     1.9145    -0.7154 C.ar    
   7 C7            -1.0139     3.3935    -0.7254 C.2     
   8 O8            -1.8488     3.9515    -1.4100 O.2     
   9 N9            -0.1622     4.1203     0.0248 N.am    
  10 C10           -0.1739     5.5171    -0.0584 C.ar    
  11 C11           -1.3731     6.1916    -0.2468 C.ar    
  12 C12           -1.3842     7.5706    -0.3283 C.ar    
  13 C13           -0.1956     8.2820    -0.2218 C.ar    
  14 C14            1.0030     7.6071    -0.0340 C.ar    
  15 C15            1.0135     6.2296     0.0533 C.ar    
  16 Cl16          -2.8828     8.4144    -0.5644 Cl      
  17 O17            0.0695     9.8219    -2.5489 O.2     
  18 C18           -0.0734    10.3401    -1.4623 C.2     
  19 N19           -0.2065     9.6830    -0.3047 N.am    
  20 C20           -0.3516    10.4698     0.7675 C.2     
  21 C21           -0.3207    11.9186     0.3372 C.3     
  22 C22           -0.1223    11.8289    -1.2049 C.3     
  23 C23           -1.4667    12.3805    -1.7752 C.3     
  24 C24           -2.5082    11.3358    -1.3564 C.2     
  25 C25           -2.6732    11.4123    -0.0511 C.2     
  26 C26           -1.7586    12.5062     0.4924 C.3     
  27 O27           -0.4868    10.0810     1.9078 O.2     
  28 C28           -1.7810    13.5088    -0.7264 C.3     
  29 H29            0.8435    -0.4554     0.6937 H       
  30 H30           -0.6636    -1.8787    -0.6381 H       
  31 H31           -2.3984    -0.8191    -2.0647 H       
  32 H32           -2.5589     1.6615    -2.1021 H       
  33 H33            0.4588     3.6752     0.6223 H       
  34 H34           -2.2968     5.6382    -0.3299 H       
  35 H35            1.9269     8.1603     0.0481 H       
  36 H36            1.9456     5.7053     0.2043 H       
  37 H37            0.4422    12.5047     0.8496 H       
  38 H38            0.7608    12.3579    -1.5634 H       
  39 H39           -1.4635    12.6638    -2.8278 H       
  40 H40           -3.0203    10.6536    -2.0188 H       
  41 H41           -3.3428    10.8029     0.5377 H       
  42 H42           -2.0118    12.9079     1.4735 H       
  43 H43           -0.9922    14.2585    -0.6649 H       
  44 H44           -2.7626    13.9568    -0.8805 H       
@<TRIPOS>BOND
   1    1    2 ar
   2    1    6 ar
   3    2    3 ar
   4    2   29 1
   5    3    4 ar
   6    3   30 1
   7    4    5 ar
   8    4   31 1
   9    5    6 ar
  10    5   32 1
  11    6    7 1
  12    7    8 2
  13    7    9 am
  14    9   10 1
  15    9   33 1
  16   10   11 ar
  17   10   15 ar
  18   11   12 ar
  19   11   34 1
  20   12   16 1
  21   12   13 ar
  22   13   14 ar
  23   13   19 1
  24   14   15 ar
  25   14   35 1
  26   15   36 1
  27   17   18 2
  28   18   22 1
  29   18   19 am
  30   19   20 am
  31   20   21 1
  32   20   27 2
  33   21   26 1
  34   21   22 1
  35   21   37 1
  36   22   23 1
  37   22   38 1
  38   23   24 1
  39   23   28 1
  40   23   39 1
  41   24   25 2
  42   24   40 1
  43   25   26 1
  44   25   41 1
  45   26   28 1
  46   26   42 1
  47   28   43 1
  48   28   44 1

#	End of record

