#	Name: ASD07480043
#	Creating user name:	WinNT
#	Creation time:	15. 06. 2019 21:11

#	Modifying user name:	WinNT
#	Modification time:	15. 06. 2019 21:11

#	Program:	/corina/corina34_cracker 3.40 0067  02.08.2006

@<TRIPOS>MOLECULE
ASD07480043
  78   84    0    0    0
SMALL
NO_CHARGES


@<TRIPOS>ATOM
   1 C1             6.6818     0.3053     0.3491 C.ar    
   2 C2             6.7869     0.3066     1.7411 C.ar    
   3 C3             5.7995     0.9236     2.5113 C.ar    
   4 C4             4.7250     1.5290     1.8949 C.ar    
   5 C5             4.6240     1.5251     0.5101 C.ar    
   6 C6             5.6041     0.9129    -0.2595 C.ar    
   7 O7             3.5627     2.1222    -0.0936 O.3     
   8 C8             3.4383     3.4669     0.0226 C.ar    
   9 N9             2.4710     4.0831    -0.6369 N.ar    
  10 C10            2.3182     5.3940    -0.5476 C.ar    
  11 C11            3.1917     6.1241     0.2529 C.ar    
  12 C12            4.1963     5.4401     0.9309 C.ar    
  13 N13            4.2839     4.1271     0.7966 N.ar    
  14 N14            3.0629     7.5150     0.3731 N.am    
  15 C15            1.8640     8.0999     0.1806 C.2     
  16 O16            0.8740     7.4151     0.0091 O.2     
  17 N17            1.7625     9.4438     0.1781 N.am    
  18 C18            0.5218    10.0491    -0.0212 C.2     
  19 C19           -0.6629     9.4100    -0.2239 C.2     
  20 N20            0.2728    11.3865    -0.0427 N.pl3   
  21 N21           -1.0981    11.5628    -0.2704 N.2     
  22 C22           -1.6543    10.3830    -0.3782 C.2     
  23 C23           -3.1169    10.1183    -0.6271 C.3     
  24 C24           -3.7771     9.6439     0.6691 C.3     
  25 C25           -3.7942    11.4049    -1.1032 C.3     
  26 C26           -3.2642     9.0373    -1.6998 C.3     
  27 C27            1.2196    12.4067     0.1326 C.ar    
  28 C28            1.0985    13.6000    -0.5681 C.ar    
  29 C29            2.2801    12.2315     1.0117 C.ar    
  30 C30            3.2095    13.2341     1.1883 C.ar    
  31 C31            3.0938    14.4321     0.4868 C.ar    
  32 C32            2.0308    14.5977    -0.3920 C.ar    
  33 O33            3.8797    15.5440     0.5238 O.3     
  34 C34            3.6429    16.3299    -0.6566 C.3     
  35 C35            2.1809    15.9710    -1.0176 C.3     
  36 C36            7.9403    -0.3441     2.3979 C.2     
  37 C37            8.9580    -0.9724     1.7741 C.2     
  38 S38            8.2325    -0.4294     4.1332 S.3     
  39 C39            9.6776    -1.3002     3.8586 C.2     
  40 N40            9.8657    -1.4711     2.5865 N.2     
  41 N41           10.5311    -1.7553     4.8550 N.am    
  42 C42           10.3287    -1.5686     6.1707 C.2     
  43 C43           11.4592    -2.1864     6.9638 C.3     
  44 C44           12.5783    -2.4073     5.9199 C.3     
  45 C45           11.7668    -2.5074     4.6071 C.3     
  46 O46            9.3783    -0.9889     6.6519 O.2     
  47 H47            7.4458    -0.1671    -0.2504 H       
  48 H48            5.8770     0.9265     3.5886 H       
  49 H49            3.9607     2.0066     2.4901 H       
  50 H50            5.5219     0.9120    -1.3364 H       
  51 H51            1.5267     5.8909    -1.0889 H       
  52 H52            4.8925     5.9735     1.5612 H       
  53 H53            3.8366     8.0563     0.5949 H       
  54 H54            2.5523     9.9901     0.3148 H       
  55 H55           -0.8105     8.3407    -0.2593 H       
  56 H56           -3.6722    10.4140     1.4333 H       
  57 H57           -4.8350     9.4524     0.4890 H       
  58 H58           -3.2946     8.7273     1.0083 H       
  59 H59           -3.3238    11.7429    -2.0266 H       
  60 H60           -4.8521    11.2135    -1.2832 H       
  61 H61           -3.6893    12.1750    -0.3390 H       
  62 H62           -2.7817     8.1207    -1.3606 H       
  63 H63           -4.3220     8.8458    -1.8798 H       
  64 H64           -2.7938     9.3752    -2.6232 H       
  65 H65            0.2741    13.7449    -1.2505 H       
  66 H66            2.3769    11.3060     1.5598 H       
  67 H67            4.0313    13.0903     1.8741 H       
  68 H68            3.7348    17.3936    -0.4372 H       
  69 H69            4.3236    16.0394    -1.4569 H       
  70 H70            2.0470    15.9232    -2.0983 H       
  71 H71            1.4841    16.6806    -0.5714 H       
  72 H72            9.0225    -1.0591     0.6995 H       
  73 H73           11.7950    -1.5038     7.7445 H       
  74 H74           11.1471    -3.1373     7.3956 H       
  75 H75           13.2627    -1.5593     5.8964 H       
  76 H76           13.1159    -3.3353     6.1148 H       
  77 H77           11.5422    -3.5498     4.3811 H       
  78 H78           12.3209    -2.0534     3.7856 H       
@<TRIPOS>BOND
   1    1    2 ar
   2    1    6 ar
   3    1   47 1
   4    2    3 ar
   5    2   36 1
   6    3    4 ar
   7    3   48 1
   8    4    5 ar
   9    4   49 1
  10    5    6 ar
  11    5    7 1
  12    6   50 1
  13    7    8 1
  14    8    9 ar
  15    8   13 ar
  16    9   10 ar
  17   10   11 ar
  18   10   51 1
  19   11   12 ar
  20   11   14 1
  21   12   13 ar
  22   12   52 1
  23   14   15 am
  24   14   53 1
  25   15   16 2
  26   15   17 am
  27   17   18 1
  28   17   54 1
  29   18   19 2
  30   18   20 1
  31   19   22 1
  32   19   55 1
  33   20   21 1
  34   20   27 1
  35   21   22 2
  36   22   23 1
  37   23   24 1
  38   23   25 1
  39   23   26 1
  40   24   56 1
  41   24   57 1
  42   24   58 1
  43   25   59 1
  44   25   60 1
  45   25   61 1
  46   26   62 1
  47   26   63 1
  48   26   64 1
  49   27   28 ar
  50   27   29 ar
  51   28   32 ar
  52   28   65 1
  53   29   30 ar
  54   29   66 1
  55   30   31 ar
  56   30   67 1
  57   31   32 ar
  58   31   33 1
  59   32   35 1
  60   33   34 1
  61   34   35 1
  62   34   68 1
  63   34   69 1
  64   35   70 1
  65   35   71 1
  66   36   37 2
  67   36   38 1
  68   37   40 1
  69   37   72 1
  70   38   39 1
  71   39   40 2
  72   39   41 1
  73   41   42 am
  74   41   45 1
  75   42   43 1
  76   42   46 2
  77   43   44 1
  78   43   73 1
  79   43   74 1
  80   44   45 1
  81   44   75 1
  82   44   76 1
  83   45   77 1
  84   45   78 1

#	End of record

