#	Name: ASD01814580
#	Creating user name:	WinNT
#	Creation time:	15. 06. 2019 19:32

#	Modifying user name:	WinNT
#	Modification time:	15. 06. 2019 19:32

#	Program:	/corina/corina34_cracker 3.40 0067  02.08.2006

@<TRIPOS>MOLECULE
ASD01814580
  62   68    0    0    0
SMALL
NO_CHARGES


@<TRIPOS>ATOM
   1 N1            -0.9367     1.9350    -1.5521 N.2     
   2 C2            -1.2053     0.7949    -2.1435 C.2     
   3 C3            -0.3440     0.2886    -3.1276 C.2     
   4 C4             0.7683     0.9864    -3.4629 C.2     
   5 N5             1.0251     2.1701    -2.8326 N.pl3   
   6 C6             0.1598     2.6337    -1.8752 C.2     
   7 N7             2.0624     3.1006    -2.9524 N.2     
   8 C8             1.8472     4.0902    -2.1095 C.2     
   9 C9             0.6738     3.8407    -1.4173 C.2     
  10 C10            2.4234     5.3993    -1.6285 C.3     
  11 N11            1.5248     5.9314    -0.5994 N.am    
  12 C12            0.4262     4.9714    -0.4521 C.3     
  13 C13            1.6803     7.0830     0.0833 C.2     
  14 O14            0.8110     7.4601     0.8455 O.2     
  15 C15            2.9042     7.8855    -0.0939 C.ar    
  16 C16            2.8197     9.2788    -0.2305 C.ar    
  17 C17            4.1546     7.2624    -0.1208 C.ar    
  18 C18            5.2949     8.0167    -0.2861 C.ar    
  19 C19            5.2079     9.3949    -0.4264 C.ar    
  20 C20            3.9757    10.0241    -0.3961 C.ar    
  21 O21            1.6110     9.8940    -0.2011 O.3     
  22 C22            1.6102    11.3230    -0.2016 C.3     
  23 F23            6.3323    10.1263    -0.5876 F       
  24 C24            0.3857    11.4401    -2.3738 C.3     
  25 C25            1.6806    11.8320    -1.6442 C.3     
  26 C26            0.3285    11.8318     0.4642 C.3     
  27 C27           -0.8747    11.4399    -0.4083 C.3     
  28 N28           -0.7320    12.1565    -1.7035 N.3     
  29 C29            0.1105     9.9474    -2.0799 C.3     
  30 C30           -0.7223     9.9472    -0.7811 C.3     
  31 C31           -1.9661    12.0644    -2.4950 C.3     
  32 C32           -0.6524    -1.0211    -3.8064 C.3     
  33 C33           -0.7521    -2.2675    -2.9247 C.3     
  34 C34           -2.0169    -1.6557    -3.5303 C.3     
  35 H35           -2.0934     0.2439    -1.8710 H       
  36 H36            1.4428     0.6112    -4.2183 H       
  37 H37            3.4136     5.2333    -1.2042 H       
  38 H38            2.4898     6.1013    -2.4597 H       
  39 H39           -0.5207     5.4573    -0.6873 H       
  40 H40            0.4025     4.5879     0.5679 H       
  41 H41            4.2268     6.1903    -0.0116 H       
  42 H42            6.2608     7.5340    -0.3063 H       
  43 H43            3.9152    11.0972    -0.5021 H       
  44 H44            2.4756    11.6862     0.3528 H       
  45 H45            0.4339    11.6573    -3.4409 H       
  46 H46            1.7854    12.9169    -1.6438 H       
  47 H47            2.5349    11.3811    -2.1491 H       
  48 H48            0.2260    11.3809     1.4513 H       
  49 H49            0.3725    12.9168     0.5594 H       
  50 H50           -1.8244    11.6569     0.0807 H       
  51 H51           -0.4576     9.4988    -2.8949 H       
  52 H52            1.0477     9.4113    -1.9297 H       
  53 H53           -0.1946     9.4112     0.0077 H       
  54 H54           -1.6999     9.4985    -0.9574 H       
  55 H55           -2.2439    11.0172    -2.6143 H       
  56 H56           -2.7672    12.5967    -1.9821 H       
  57 H57           -1.8030    12.5111    -3.4758 H       
  58 H58           -0.2330    -1.1433    -4.8050 H       
  59 H59           -0.3985    -3.2098    -3.3434 H       
  60 H60           -0.5945    -2.1403    -1.8537 H       
  61 H61           -2.6915    -1.1260    -2.8577 H       
  62 H62           -2.4956    -2.1955    -4.3474 H       
@<TRIPOS>BOND
   1    1    2 2
   2    1    6 1
   3    2    3 1
   4    2   35 1
   5    3    4 2
   6    3   32 1
   7    4    5 1
   8    4   36 1
   9    5    7 1
  10    5    6 1
  11    6    9 2
  12    7    8 2
  13    8   10 1
  14    8    9 1
  15    9   12 1
  16   10   11 1
  17   10   37 1
  18   10   38 1
  19   11   12 1
  20   11   13 am
  21   12   39 1
  22   12   40 1
  23   13   14 2
  24   13   15 1
  25   15   17 ar
  26   15   16 ar
  27   16   20 ar
  28   16   21 1
  29   17   18 ar
  30   17   41 1
  31   18   19 ar
  32   18   42 1
  33   19   20 ar
  34   19   23 1
  35   20   43 1
  36   21   22 1
  37   22   26 1
  38   22   25 1
  39   22   44 1
  40   24   25 1
  41   24   28 1
  42   24   29 1
  43   24   45 1
  44   25   46 1
  45   25   47 1
  46   26   27 1
  47   26   48 1
  48   26   49 1
  49   27   28 1
  50   27   30 1
  51   27   50 1
  52   28   31 1
  53   29   30 1
  54   29   51 1
  55   29   52 1
  56   30   53 1
  57   30   54 1
  58   31   55 1
  59   31   56 1
  60   31   57 1
  61   32   33 1
  62   32   34 1
  63   32   58 1
  64   33   34 1
  65   33   59 1
  66   33   60 1
  67   34   61 1
  68   34   62 1

#	End of record

