#	Name: ASD09720065
#	Creating user name:	WinNT
#	Creation time:	15. 06. 2019 21:22

#	Modifying user name:	WinNT
#	Modification time:	15. 06. 2019 21:22

#	Program:	/corina/corina34_cracker 3.40 0067  02.08.2006

@<TRIPOS>MOLECULE
ASD09720065
  39   40    0    0    0
SMALL
NO_CHARGES


@<TRIPOS>ATOM
   1 C1             0.1038     1.5472     0.5185 C.2     
   2 C2             0.2828     0.1401     0.9062 C.2     
   3 N3             1.4729    -0.3679     0.9698 N.2     
   4 C4            -0.9180    -0.7109     1.2297 C.3     
   5 O5             2.6012     0.4318     0.6658 O.3     
   6 S6            -0.3711    -2.3772     1.6934 S.3     
   7 C7            -1.8856    -3.2121     2.0305 C.ar    
   8 C8            -1.8736    -4.5443     2.4261 C.ar    
   9 C9            -3.0624    -5.1954     2.6893 C.ar    
  10 C10           -4.2643    -4.5235     2.5592 C.ar    
  11 C11           -4.2802    -3.1978     2.1653 C.ar    
  12 C12           -3.0949    -2.5384     1.9068 C.ar    
  13 C13            1.0798     2.3960     0.0372 C.2     
  14 C14            0.4837     3.6324    -0.2034 C.2     
  15 N15           -0.7852     3.5558     0.1096 N.2     
  16 N16           -1.0610     2.2592     0.5611 N.pl3   
  17 C17           -2.3632     1.7591     1.0086 C.3     
  18 C18           -2.5343     2.0463     2.5016 C.3     
  19 C19           -3.4751     2.4584     0.2240 C.3     
  20 C20            1.1844     4.8560    -0.7352 C.3     
  21 F21            1.1206     4.8595    -2.1328 F       
  22 F22            0.5599     6.0045    -0.2371 F       
  23 F23            2.5232     4.8401    -0.3296 F       
  24 H24           -1.4668    -0.2647     2.0591 H       
  25 H25           -1.5665    -0.7715     0.3557 H       
  26 H26            3.4453    -0.0341     0.7409 H       
  27 H27           -0.9355    -5.0698     2.5272 H       
  28 H28           -3.0538    -6.2306     2.9968 H       
  29 H29           -5.1927    -5.0354     2.7655 H       
  30 H30           -5.2206    -2.6764     2.0645 H       
  31 H31           -3.1080    -1.5032     1.5992 H       
  32 H32            2.1183     2.1471    -0.1235 H       
  33 H33           -2.4182     0.6841     0.8368 H       
  34 H34           -2.4793     3.1213     2.6734 H       
  35 H35           -3.5032     1.6742     2.8345 H       
  36 H36           -1.7421     1.5481     3.0605 H       
  37 H37           -4.4441     2.0863     0.5570 H       
  38 H38           -3.4202     3.5333     0.3958 H       
  39 H39           -3.3533     2.2537    -0.8396 H       
@<TRIPOS>BOND
   1    1    2 1
   2    1   13 2
   3    1   16 1
   4    2    3 2
   5    2    4 1
   6    3    5 1
   7    4    6 1
   8    4   24 1
   9    4   25 1
  10    5   26 1
  11    6    7 1
  12    7    8 ar
  13    7   12 ar
  14    8    9 ar
  15    8   27 1
  16    9   10 ar
  17    9   28 1
  18   10   11 ar
  19   10   29 1
  20   11   12 ar
  21   11   30 1
  22   12   31 1
  23   13   14 1
  24   13   32 1
  25   14   15 2
  26   14   20 1
  27   15   16 1
  28   16   17 1
  29   17   18 1
  30   17   19 1
  31   17   33 1
  32   18   34 1
  33   18   35 1
  34   18   36 1
  35   19   37 1
  36   19   38 1
  37   19   39 1
  38   20   21 1
  39   20   22 1
  40   20   23 1

#	End of record

