#	Name: ASD01478015
#	Creating user name:	WinNT
#	Creation time:	15. 06. 2019 19:21

#	Modifying user name:	WinNT
#	Modification time:	15. 06. 2019 19:21

#	Program:	/corina/corina34_cracker 3.40 0067  02.08.2006

@<TRIPOS>MOLECULE
ASD01478015
  76   78    0    0    0
SMALL
NO_CHARGES


@<TRIPOS>ATOM
   1 C1            -0.5116     1.5311    -1.8902 C.3     
   2 C2             1.6238     2.2622    -2.6659 C.2     
   3 O3             0.7749     2.1507    -1.6268 O.3     
   4 N4             2.8344     2.8278    -2.4893 N.am    
   5 O5             1.2986     1.8530    -3.7628 O.2     
   6 C6             3.4397     4.2237    -4.4041 C.3     
   7 C7             3.7581     2.9491    -3.6199 C.3     
   8 C8             5.1953     3.0162    -3.0994 C.3     
   9 C9             6.1664     3.0173    -4.2817 C.3     
  10 N10            7.5424     2.9493    -3.7835 N.am    
  11 S11            8.5736     4.2227    -4.0231 S.o2    
  12 C12            8.4032     5.2995    -2.6388 C.ar    
  13 C13            9.2051     5.1252    -1.5260 C.ar    
  14 C14            9.0734     5.9680    -0.4395 C.ar    
  15 C15            8.1356     6.9900    -0.4654 C.ar    
  16 C16            7.3322     7.1628    -1.5832 C.ar    
  17 C17            7.4717     6.3208    -2.6694 C.ar    
  18 O18            9.8897     3.6910    -3.9582 O.2     
  19 O19            8.0775     4.9345    -5.1485 O.2     
  20 C20            8.0061     1.7549    -3.0733 C.3     
  21 C21            8.0551     0.5720    -4.0425 C.3     
  22 C22            9.0774     0.8576    -5.1444 C.3     
  23 C23            8.4628    -0.6925    -3.2838 C.3     
  24 O24            5.3707     4.2125    -2.3378 O.3     
  25 C25           -0.4072     0.0203    -1.6662 C.3     
  26 O26           -1.6881    -0.5797    -1.8697 O.3     
  27 C27           -2.7001    -0.1121    -0.9756 C.3     
  28 C28           -2.8966     1.3934    -1.1719 C.3     
  29 C29           -1.5628     2.1093    -0.9378 C.3     
  30 O30           -1.1441     1.9102     0.4139 O.3     
  31 O31            8.0039     7.8202     0.6024 O.3     
  32 C32            7.0180     8.8502     0.5057 C.3     
  33 C33            2.0693     4.1056    -5.0198 C.ar    
  34 C34            0.9576     4.5352    -4.3196 C.ar    
  35 C35           -0.2995     4.4268    -4.8844 C.ar    
  36 C36           -0.4447     3.8891    -6.1496 C.ar    
  37 C37            0.6671     3.4603    -6.8502 C.ar    
  38 C38            1.9246     3.5727    -6.2871 C.ar    
  39 H39           -0.8059     1.7270    -2.9213 H       
  40 H40            3.0940     3.1544    -1.6137 H       
  41 H41            3.4626     5.0802    -3.7303 H       
  42 H42            4.1811     4.3608    -5.1913 H       
  43 H43            3.6483     2.0836    -4.2733 H       
  44 H44            5.3935     2.1507    -2.4672 H       
  45 H45            5.9668     2.1540    -4.9166 H       
  46 H46            6.0340     3.9318    -4.8598 H       
  47 H47            9.9348     4.3292    -1.5062 H       
  48 H48            9.6998     5.8313     0.4296 H       
  49 H49            6.6014     7.9577    -1.6058 H       
  50 H50            6.8465     6.4549    -3.5398 H       
  51 H51            9.0026     1.9358    -2.6702 H       
  52 H52            7.3199     1.5279    -2.2574 H       
  53 H53            7.0711     0.4268    -4.4885 H       
  54 H54            9.1122     0.0149    -5.8350 H       
  55 H55            8.7869     1.7585    -5.6849 H       
  56 H56           10.0613     1.0028    -4.6984 H       
  57 H57            7.7344    -0.8959    -2.4988 H       
  58 H58            8.4976    -1.5352    -3.9743 H       
  59 H59            9.4467    -0.5473    -2.8378 H       
  60 H60            5.2102     5.0244    -2.8381 H       
  61 H61            0.3086    -0.4031    -2.3708 H       
  62 H62           -0.0727    -0.1738    -0.6471 H       
  63 H63           -3.6361    -0.6309    -1.1827 H       
  64 H64           -2.3956    -0.3080     0.0525 H       
  65 H65           -3.2402     1.5864    -2.1881 H       
  66 H66           -3.6365     1.7600    -0.4604 H       
  67 H67           -1.6824     3.1754    -1.1306 H       
  68 H68           -1.7673     2.2468     1.0723 H       
  69 H69            7.0168     9.4392     1.4228 H       
  70 H70            7.2496     9.4965    -0.3409 H       
  71 H71            6.0357     8.4004     0.3615 H       
  72 H72            1.0711     4.9553    -3.3311 H       
  73 H73           -1.1681     4.7618    -4.3370 H       
  74 H74           -1.4269     3.8038    -6.5905 H       
  75 H75            0.5536     3.0399    -7.8385 H       
  76 H76            2.7936     3.2411    -6.8360 H       
@<TRIPOS>BOND
   1    1   25 1
   2    1    3 1
   3    1   29 1
   4    1   39 1
   5    2    3 1
   6    2    4 am
   7    2    5 2
   8    4    7 1
   9    4   40 1
  10    6    7 1
  11    6   33 1
  12    6   41 1
  13    6   42 1
  14    7    8 1
  15    7   43 1
  16    8    9 1
  17    8   24 1
  18    8   44 1
  19    9   10 1
  20    9   45 1
  21    9   46 1
  22   10   11 am
  23   10   20 1
  24   11   12 1
  25   11   18 2
  26   11   19 2
  27   12   13 ar
  28   12   17 ar
  29   13   14 ar
  30   13   47 1
  31   14   15 ar
  32   14   48 1
  33   15   16 ar
  34   15   31 1
  35   16   17 ar
  36   16   49 1
  37   17   50 1
  38   20   21 1
  39   20   51 1
  40   20   52 1
  41   21   22 1
  42   21   23 1
  43   21   53 1
  44   22   54 1
  45   22   55 1
  46   22   56 1
  47   23   57 1
  48   23   58 1
  49   23   59 1
  50   24   60 1
  51   25   26 1
  52   25   61 1
  53   25   62 1
  54   26   27 1
  55   27   28 1
  56   27   63 1
  57   27   64 1
  58   28   29 1
  59   28   65 1
  60   28   66 1
  61   29   30 1
  62   29   67 1
  63   30   68 1
  64   31   32 1
  65   32   69 1
  66   32   70 1
  67   32   71 1
  68   33   34 ar
  69   33   38 ar
  70   34   35 ar
  71   34   72 1
  72   35   36 ar
  73   35   73 1
  74   36   37 ar
  75   36   74 1
  76   37   38 ar
  77   37   75 1
  78   38   76 1

#	End of record

