#	Name: ASD01680094
#	Creating user name:	WinNT
#	Creation time:	15. 06. 2019 19:22

#	Modifying user name:	WinNT
#	Modification time:	15. 06. 2019 19:22

#	Program:	/corina/corina34_cracker 3.40 0067  02.08.2006

@<TRIPOS>MOLECULE
ASD01680094
  87   90    0    0    0
SMALL
NO_CHARGES


@<TRIPOS>ATOM
   1 C1            -0.9326     1.3703    -0.3535 C.2     
   2 C2            -0.8548    -0.1346    -0.3677 C.3     
   3 C3            -1.5520    -0.6696    -1.6201 C.3     
   4 O4             0.0812     2.0277    -0.3501 O.2     
   5 O5            -2.1281     1.9806    -0.3503 O.3     
   6 N6             0.5498    -0.5509    -0.3752 N.am    
   7 S7             1.3119    -0.9193     1.0481 S.o2    
   8 O8             2.6333    -1.3138     0.7053 O.2     
   9 O9             1.0267     0.1466     1.9435 O.2     
  10 C10            0.5213    -2.3488     1.7083 C.ar    
  11 C11           -0.4414    -2.2144     2.6912 C.ar    
  12 C12           -1.0616    -3.3359     3.2092 C.ar    
  13 C13           -0.7196    -4.5919     2.7440 C.ar    
  14 C14            0.2424    -4.7263     1.7604 C.ar    
  15 C15            0.8596    -3.6044     1.2393 C.ar    
  16 C16            1.9046    -3.7506     0.1634 C.3     
  17 C17           -1.3951    -5.8146     3.3094 C.3     
  18 C18           -0.8143    -0.8452     3.1984 C.3     
  19 N19           -1.3736    -2.1217    -1.6957 N.am    
  20 C20           -1.9059    -2.8135    -2.7226 C.2     
  21 O21           -2.5327    -2.2339    -3.5840 O.2     
  22 C22           -1.7224    -4.3073    -2.8003 C.3     
  23 O23           -2.3736    -4.8069    -3.9701 O.3     
  24 N24           -4.5479    -6.8566    -4.4583 N.am    
  25 C25           -3.4512    -6.9576    -3.4783 C.3     
  26 C26           -2.2595    -6.2212    -4.1395 C.3     
  27 C27           -2.4352    -6.6189    -5.6289 C.3     
  28 C28           -3.9687    -6.6644    -5.7959 C.3     
  29 C29           -4.3588    -7.8320    -6.7045 C.3     
  30 N30           -3.8633    -7.5822    -8.0604 N.pl3   
  31 C31           -4.0077    -8.5546    -9.0432 C.ar    
  32 C32           -4.6238    -9.7628    -8.7325 C.ar    
  33 C33           -4.7608   -10.7213    -9.7200 C.ar    
  34 C34           -4.2754   -10.4386   -10.9901 C.ar    
  35 C35           -3.6750    -9.2188   -11.2283 C.ar    
  36 N36           -3.5627    -8.3206   -10.2680 N.ar    
  37 C37           -5.8635    -6.9336    -4.1757 C.2     
  38 O38           -6.6785    -6.9201    -5.0737 O.2     
  39 C39           -6.3218    -7.0363    -2.7437 C.3     
  40 C40           -7.8494    -7.1094    -2.7012 C.3     
  41 C41           -8.3147    -7.2138    -1.2474 C.3     
  42 C42           -7.7259    -8.4753    -0.6127 C.3     
  43 C43           -6.1982    -8.4022    -0.6553 C.3     
  44 C44           -5.7329    -8.2978    -2.1091 C.3     
  45 H45           -1.3468    -0.5322     0.5200 H       
  46 H46           -2.6156    -0.4363    -1.5714 H       
  47 H47           -1.1179    -0.2036    -2.5047 H       
  48 H48           -2.1274     2.9475    -0.3411 H       
  49 H49            1.0334    -0.6108    -1.2140 H       
  50 H50           -1.8132    -3.2309     3.9776 H       
  51 H51            0.5099    -5.7075     1.3971 H       
  52 H52            2.8959    -3.7449     0.6166 H       
  53 H53            1.7524    -4.6914    -0.3656 H       
  54 H54            1.8214    -2.9212    -0.5389 H       
  55 H55           -2.2865    -6.0406     2.7242 H       
  56 H56           -0.7090    -6.6606     3.2678 H       
  57 H57           -1.6783    -5.6270     4.3451 H       
  58 H58           -1.4024    -0.3253     2.4422 H       
  59 H59           -1.4017    -0.9434     4.1113 H       
  60 H60            0.0915    -0.2765     3.4087 H       
  61 H61           -0.8723    -2.5853    -1.0067 H       
  62 H62           -0.6588    -4.5406    -2.8490 H       
  63 H63           -2.1565    -4.7732    -1.9157 H       
  64 H64           -3.7297    -6.4674    -2.5455 H       
  65 H65           -3.1987    -8.0025    -3.2980 H       
  66 H66           -1.3096    -6.5843    -3.7471 H       
  67 H67           -1.9982    -5.8649    -6.2836 H       
  68 H68           -1.9972    -7.5984    -5.8208 H       
  69 H69           -4.3232    -5.7259    -6.2220 H       
  70 H70           -3.9198    -8.7531    -6.3212 H       
  71 H71           -5.4443    -7.9284    -6.7264 H       
  72 H72           -3.4345    -6.7384    -8.2723 H       
  73 H73           -4.9897    -9.9497    -7.7337 H       
  74 H74           -5.2344   -11.6686    -9.5081 H       
  75 H75           -4.3665   -11.1659   -11.7832 H       
  76 H76           -3.2961    -8.9949   -12.2146 H       
  77 H77           -5.9844    -6.1599    -2.1905 H       
  78 H78           -8.2689    -6.2107    -3.1533 H       
  79 H79           -8.1868    -7.9859    -3.2544 H       
  80 H80           -7.9773    -6.3373    -0.6941 H       
  81 H81           -9.4030    -7.2658    -1.2171 H       
  82 H82           -8.0574    -8.5496     0.4230 H       
  83 H83           -8.0633    -9.3517    -1.1660 H       
  84 H84           -5.8609    -7.5257    -0.1020 H       
  85 H85           -5.7787    -9.3009    -0.2032 H       
  86 H86           -6.0703    -9.1743    -2.6623 H       
  87 H87           -4.6446    -8.2458    -2.1394 H       
@<TRIPOS>BOND
   1    1    2 1
   2    1    4 2
   3    1    5 1
   4    2    3 1
   5    2    6 1
   6    2   45 1
   7    3   19 1
   8    3   46 1
   9    3   47 1
  10    5   48 1
  11    6    7 am
  12    6   49 1
  13    7    8 2
  14    7    9 2
  15    7   10 1
  16   10   11 ar
  17   10   15 ar
  18   11   12 ar
  19   11   18 1
  20   12   13 ar
  21   12   50 1
  22   13   14 ar
  23   13   17 1
  24   14   15 ar
  25   14   51 1
  26   15   16 1
  27   16   52 1
  28   16   53 1
  29   16   54 1
  30   17   55 1
  31   17   56 1
  32   17   57 1
  33   18   58 1
  34   18   59 1
  35   18   60 1
  36   19   20 am
  37   19   61 1
  38   20   21 2
  39   20   22 1
  40   22   23 1
  41   22   62 1
  42   22   63 1
  43   23   26 1
  44   24   25 1
  45   24   28 1
  46   24   37 am
  47   25   26 1
  48   25   64 1
  49   25   65 1
  50   26   27 1
  51   26   66 1
  52   27   28 1
  53   27   67 1
  54   27   68 1
  55   28   29 1
  56   28   69 1
  57   29   30 1
  58   29   70 1
  59   29   71 1
  60   30   31 1
  61   30   72 1
  62   31   32 ar
  63   31   36 ar
  64   32   33 ar
  65   32   73 1
  66   33   34 ar
  67   33   74 1
  68   34   35 ar
  69   34   75 1
  70   35   36 ar
  71   35   76 1
  72   37   38 2
  73   37   39 1
  74   39   40 1
  75   39   44 1
  76   39   77 1
  77   40   41 1
  78   40   78 1
  79   40   79 1
  80   41   42 1
  81   41   80 1
  82   41   81 1
  83   42   43 1
  84   42   82 1
  85   42   83 1
  86   43   44 1
  87   43   84 1
  88   43   85 1
  89   44   86 1
  90   44   87 1

#	End of record

