#	Name: ASD01150758
#	Creating user name:	WinNT
#	Creation time:	15. 06. 2019 19:05

#	Modifying user name:	WinNT
#	Modification time:	15. 06. 2019 19:05

#	Program:	/corina/corina34_cracker 3.40 0067  02.08.2006

@<TRIPOS>MOLECULE
ASD01150758
  48   51    0    0    0
SMALL
NO_CHARGES


@<TRIPOS>ATOM
   1 C1            -0.0868     1.6253    -0.0733 C.2     
   2 C2            -0.6688     1.3508    -1.4361 C.3     
   3 N3             3.5409     2.2700     0.2687 N.ar    
   4 C4             2.3963     1.6485     0.1584 C.ar    
   5 C5             1.1820     2.3508     0.0497 C.ar    
   6 C6             1.1998     3.7573     0.0600 C.ar    
   7 C7             2.4572     4.3991     0.1810 C.ar    
   8 C8             2.5575     5.7959     0.1993 C.ar    
   9 C9             3.7988     6.3862     0.3190 C.ar    
  10 C10            4.9511     5.5997     0.4211 C.ar    
  11 C11            4.8753     4.2413     0.4052 C.ar    
  12 C12            3.6275     3.6072     0.2851 C.ar    
  13 C13           -0.0494     4.5384    -0.0519 C.ar    
  14 C14           -1.0127     4.4692     0.9570 C.ar    
  15 C15           -2.1764     5.2014     0.8463 C.ar    
  16 C16           -2.3907     6.0027    -0.2614 C.ar    
  17 C17           -1.4407     6.0756    -1.2650 C.ar    
  18 C18           -0.2698     5.3536    -1.1642 C.ar    
  19 C19            2.3769     0.1416     0.1467 C.3     
  20 N20            3.9056     7.7783     0.3379 N.3     
  21 C21            2.7702     8.3857     1.0563 C.3     
  22 C22            3.3572     9.2464     2.1947 C.3     
  23 C23            4.8020     9.5322     1.7074 C.3     
  24 C24            5.1600     8.2046     0.9940 C.3     
  25 O25            2.6223    10.4635     2.3382 O.3     
  26 F26           -1.8194     0.5664    -1.3024 F       
  27 F27           -0.9989     2.5614    -2.0547 F       
  28 F28            0.2718     0.6698    -2.2163 F       
  29 O29           -0.6703     1.2506     0.9221 O.2     
  30 H30            1.6700     6.4063     0.1200 H       
  31 H31            5.9151     6.0778     0.5135 H       
  32 H32            5.7755     3.6498     0.4848 H       
  33 H33           -0.8470     3.8437     1.8216 H       
  34 H34           -2.9222     5.1489     1.6257 H       
  35 H35           -3.3038     6.5737    -0.3432 H       
  36 H36           -1.6147     6.7024    -2.1271 H       
  37 H37            0.4728     5.4148    -1.9461 H       
  38 H38            2.3612    -0.2295     1.1714 H       
  39 H39            1.4878    -0.2062    -0.3793 H       
  40 H40            3.2675    -0.2293    -0.3605 H       
  41 H41            2.1941     9.0132     0.3763 H       
  42 H42            2.1340     7.6045     1.4723 H       
  43 H43            3.3695     8.6896     3.1317 H       
  44 H44            4.8201    10.3683     1.0083 H       
  45 H45            5.4692     9.7151     2.5497 H       
  46 H46            5.4810     7.4581     1.7205 H       
  47 H47            5.9394     8.3715     0.2505 H       
  48 H48            2.9510    11.0409     3.0409 H       
@<TRIPOS>BOND
   1    1    2 1
   2    1    5 1
   3    1   29 2
   4    2   26 1
   5    2   27 1
   6    2   28 1
   7    3    4 ar
   8    3   12 ar
   9    4    5 ar
  10    4   19 1
  11    5    6 ar
  12    6    7 ar
  13    6   13 1
  14    7    8 ar
  15    7   12 ar
  16    8    9 ar
  17    8   30 1
  18    9   10 ar
  19    9   20 1
  20   10   11 ar
  21   10   31 1
  22   11   12 ar
  23   11   32 1
  24   13   14 ar
  25   13   18 ar
  26   14   15 ar
  27   14   33 1
  28   15   16 ar
  29   15   34 1
  30   16   17 ar
  31   16   35 1
  32   17   18 ar
  33   17   36 1
  34   18   37 1
  35   19   38 1
  36   19   39 1
  37   19   40 1
  38   20   21 1
  39   20   24 1
  40   21   22 1
  41   21   41 1
  42   21   42 1
  43   22   23 1
  44   22   25 1
  45   22   43 1
  46   23   24 1
  47   23   44 1
  48   23   45 1
  49   24   46 1
  50   24   47 1
  51   25   48 1

#	End of record

