#	Name: ASD09740048
#	Creating user name:	WinNT
#	Creation time:	15. 06. 2019 21:22

#	Modifying user name:	WinNT
#	Modification time:	15. 06. 2019 21:22

#	Program:	/corina/corina34_cracker 3.40 0067  02.08.2006

@<TRIPOS>MOLECULE
ASD09740048
  48   51    0    0    0
SMALL
NO_CHARGES


@<TRIPOS>ATOM
   1 N1            -0.0144     1.2085     0.0087 N.2     
   2 O2             0.0021    -0.0041     0.0020 O.3     
   3 C3             1.2064     1.6802    -0.0004 C.2     
   4 N4             2.0463     0.6241    -0.0141 N.2     
   5 C5             1.2701    -0.4441    -0.0125 C.2     
   6 C6             1.7125    -1.8532    -0.0242 C.ar    
   7 C7             1.5952     3.1123     0.0035 C.ar    
   8 C8             0.7686    -2.8832    -0.0208 C.ar    
   9 C9             3.0746    -2.1586    -0.0447 C.ar    
  10 C10            3.4861    -3.4747    -0.0562 C.ar    
  11 C11            2.5490    -4.4978    -0.0474 C.ar    
  12 C12            1.1874    -4.1997    -0.0323 C.ar    
  13 C13            0.6162     4.0959     0.0187 C.ar    
  14 C14            0.9939     5.4381     0.0223 C.ar    
  15 C15            2.3582     5.7848     0.0106 C.ar    
  16 C16            3.3228     4.7807    -0.0048 C.ar    
  17 C17            2.9480     3.4686    -0.0022 C.ar    
  18 C18           -1.9802    -6.0827    -0.0006 C.3     
  19 C19           -3.4556    -5.6777     0.0159 C.3     
  20 C20            0.2545     6.7031     0.0374 C.2     
  21 C21            1.1652     7.6890     0.0342 C.2     
  22 N22            2.4267     7.1592     0.0182 N.pl3   
  23 O23            0.2713    -5.2048    -0.0237 O.3     
  24 C24           -1.1066    -4.8266    -0.0083 C.3     
  25 O25            2.9594    -5.7929    -0.0588 O.3     
  26 C26            4.3689    -6.0267    -0.0796 C.3     
  27 C27            4.6360    -7.5332    -0.0899 C.3     
  28 H28           -0.2860    -2.6508    -0.0087 H       
  29 H29            3.8061    -1.3641    -0.0520 H       
  30 H30            4.5401    -3.7096    -0.0724 H       
  31 H31           -0.4290     3.8241     0.0273 H       
  32 H32            4.3709     5.0412    -0.0142 H       
  33 H33            3.7036     2.6970    -0.0143 H       
  34 H34           -1.7563    -6.6755     0.8863 H       
  35 H35           -1.7755    -6.6732    -0.8936 H       
  36 H36           -3.6795    -5.0848    -0.8709 H       
  37 H37           -4.0779    -6.5725     0.0215 H       
  38 H38           -3.6603    -5.0872     0.9090 H       
  39 H39           -0.8191     6.8199     0.0484 H       
  40 H40            0.9362     8.7444     0.0428 H       
  41 H41            3.2477     7.6759     0.0131 H       
  42 H42           -1.3306    -4.2337    -0.8952 H       
  43 H43           -1.3114    -4.2361     0.8847 H       
  44 H44            4.7989    -5.5754    -0.9738 H       
  45 H45            4.8240    -5.5831     0.8060 H       
  46 H46            4.2060    -7.9845     0.8043 H       
  47 H47            4.1810    -7.9768    -0.9755 H       
  48 H48            5.7112    -7.7115    -0.1058 H       
@<TRIPOS>BOND
   1    1    2 1
   2    1    3 2
   3    2    5 1
   4    3    4 1
   5    3    7 1
   6    4    5 2
   7    5    6 1
   8    6    8 ar
   9    6    9 ar
  10    7   13 ar
  11    7   17 ar
  12    8   12 ar
  13    8   28 1
  14    9   10 ar
  15    9   29 1
  16   10   11 ar
  17   10   30 1
  18   11   12 ar
  19   11   25 1
  20   12   23 1
  21   13   14 ar
  22   13   31 1
  23   14   15 ar
  24   14   20 1
  25   15   16 ar
  26   15   22 1
  27   16   17 ar
  28   16   32 1
  29   17   33 1
  30   18   19 1
  31   18   24 1
  32   18   34 1
  33   18   35 1
  34   19   36 1
  35   19   37 1
  36   19   38 1
  37   20   21 2
  38   20   39 1
  39   21   22 1
  40   21   40 1
  41   22   41 1
  42   23   24 1
  43   24   42 1
  44   24   43 1
  45   25   26 1
  46   26   27 1
  47   26   44 1
  48   26   45 1
  49   27   46 1
  50   27   47 1
  51   27   48 1

#	End of record

