#	Name: ASD00842876
#	Creating user name:	WinNT
#	Creation time:	15. 06. 2019 18:45

#	Modifying user name:	WinNT
#	Modification time:	15. 06. 2019 18:45

#	Program:	/corina/corina34_cracker 3.40 0067  02.08.2006

@<TRIPOS>MOLECULE
ASD00842876
  93   98    0    0    0
SMALL
NO_CHARGES


@<TRIPOS>ATOM
   1 N1            -0.0056     1.3211     0.0336 N.ar    
   2 C2             0.0086    -0.0012     0.0174 C.ar    
   3 C3             1.2114    -0.6959    -0.0023 C.ar    
   4 C4             2.3991     0.0142    -0.0048 C.ar    
   5 C5             2.3412     1.4012     0.0126 C.ar    
   6 C6             1.1102     2.0256     0.0317 C.ar    
   7 C7             1.2227    -2.2028    -0.0202 C.3     
   8 C8             0.4754    -2.7247    -1.2289 C.2     
   9 N9             2.5990    -2.7048    -0.0112 N.am    
  10 C10            3.4472    -2.3639    -1.0016 C.2     
  11 N11            4.7405    -2.7378    -0.9396 N.am    
  12 O12            3.0455    -1.7192    -1.9509 O.2     
  13 C13            5.6563    -2.4767    -2.0605 C.3     
  14 C14            6.9068    -1.7789    -1.5150 C.3     
  15 N15            7.4744    -2.5812    -0.4231 N.3     
  16 C16            6.5392    -2.6829     0.7052 C.3     
  17 C17            5.2751    -3.4123     0.2531 C.3     
  18 C18            8.7676    -2.0374     0.0125 C.3     
  19 C19            9.2683    -2.8206     1.2292 C.3     
  20 C20           10.6434    -2.2898     1.6409 C.3     
  21 N21           11.5819    -2.4376     0.5211 N.3     
  22 C22           11.1464    -1.6561    -0.6434 C.3     
  23 C23            9.7863    -2.1680    -1.1232 C.3     
  24 C24           12.9449    -2.0667     0.9241 C.3     
  25 O25            0.7565    -2.5236    -2.3914 O.2     
  26 N26           -0.5571    -3.4529    -0.7725 N.am    
  27 C27            0.4472    -2.7525     1.1554 C.ar    
  28 C28           -0.6046    -3.4910     0.6182 C.ar    
  29 C29            0.6118    -2.6408     2.5127 C.ar    
  30 C30           -0.2868    -3.2757     3.3774 C.ar    
  31 C31           -1.3465    -4.0197     2.8447 C.ar    
  32 C32           -1.5003    -4.1255     1.4789 C.ar    
  33 F33           -2.2194    -4.6364     3.6710 F       
  34 C34           -1.0261    -5.8359    -2.0669 C.ar    
  35 C35            0.1520    -5.9993    -2.7807 C.ar    
  36 C36           -1.7069    -6.9427    -1.5971 C.ar    
  37 C37           -1.2146    -8.2119    -1.8375 C.ar    
  38 C38           -0.0403    -8.3774    -2.5488 C.ar    
  39 C39            0.6438    -7.2743    -3.0210 C.ar    
  40 H40            0.3422    -9.3700    -2.7353 H       
  41 O41            0.8233    -4.9123    -3.2442 O.3     
  42 C42            2.0292    -5.1559    -3.9711 C.3     
  43 C43           13.9288    -2.4657    -0.1775 C.3     
  44 C44           15.3485    -2.0794     0.2422 C.3     
  45 C45           -0.1236    -3.1656     4.7958 C.1     
  46 N46            0.0059    -3.0783     5.9211 N.1     
  47 O47           -1.1628    -0.6858     0.0205 O.3     
  48 C48           -2.3653     0.0860     0.0415 C.3     
  49 C49           -3.5737    -0.8524     0.0419 C.3     
  50 F50           -3.5486    -1.6454    -1.1104 F       
  51 F51           -3.5264    -1.6731     1.1739 F       
  52 S52           -1.6500    -4.2182    -1.7533 S.o2    
  53 O53           -2.8319    -4.3864    -0.9826 O.2     
  54 O54           -1.6242    -3.5303    -2.9964 O.2     
  55 H55            3.3493    -0.4988    -0.0196 H       
  56 H56            3.2496     1.9854     0.0116 H       
  57 H57            1.0597     3.1044     0.0449 H       
  58 H58            2.8998    -3.2825     0.7076 H       
  59 H59            5.9384    -3.4191    -2.5301 H       
  60 H60            5.1668    -1.8325    -2.7909 H       
  61 H61            7.6433    -1.6767    -2.3120 H       
  62 H62            6.6377    -0.7917    -1.1391 H       
  63 H63            7.0089    -3.2364     1.5182 H       
  64 H64            6.2752    -1.6832     1.0501 H       
  65 H65            4.5337    -3.3894     1.0518 H       
  66 H66            5.5176    -4.4454     0.0043 H       
  67 H67            8.6501    -0.9869     0.2786 H       
  68 H68            8.5681    -2.6964     2.0553 H       
  69 H69            9.3476    -3.8774     0.9744 H       
  70 H70           10.5608    -1.2365     1.9088 H       
  71 H71           11.0091    -2.8549     2.4982 H       
  72 H72           11.0614    -0.6058    -0.3647 H       
  73 H73           11.8773    -1.7610    -1.4451 H       
  74 H74            9.8737    -3.2146    -1.4151 H       
  75 H75            9.4561    -1.5776    -1.9779 H       
  76 H76           12.9961    -0.9898     1.0844 H       
  77 H77           13.2042    -2.5842     1.8477 H       
  78 H78            1.4330    -2.0646     2.9128 H       
  79 H79           -2.3194    -4.7008     1.0733 H       
  80 H80           -2.6242    -6.8160    -1.0413 H       
  81 H81           -1.7479    -9.0757    -1.4688 H       
  82 H82            1.5605    -7.4041    -3.5771 H       
  83 H83            2.4636    -4.2061    -4.2830 H       
  84 H84            2.7364    -5.6872    -3.3341 H       
  85 H85            1.8075    -5.7602    -4.8507 H       
  86 H86           13.8777    -3.5427    -0.3378 H       
  87 H87           13.6695    -1.9482    -1.1012 H       
  88 H88           16.0495    -2.3637    -0.5426 H       
  89 H89           15.3997    -1.0025     0.4024 H       
  90 H90           15.6078    -2.5969     1.1658 H       
  91 H91           -2.3847     0.7038     0.9393 H       
  92 H92           -2.4021     0.7255    -0.8404 H       
  93 H93           -4.4909    -0.2637     0.0580 H       
@<TRIPOS>BOND
   1    1    2 ar
   2    1    6 ar
   3    2    3 ar
   4    2   47 1
   5    3    4 ar
   6    3    7 1
   7    4    5 ar
   8    4   55 1
   9    5    6 ar
  10    5   56 1
  11    6   57 1
  12    7    8 1
  13    7    9 1
  14    7   27 1
  15    8   25 2
  16    8   26 am
  17    9   10 am
  18    9   58 1
  19   10   11 am
  20   10   12 2
  21   11   13 1
  22   11   17 1
  23   13   14 1
  24   13   59 1
  25   13   60 1
  26   14   15 1
  27   14   61 1
  28   14   62 1
  29   15   16 1
  30   15   18 1
  31   16   17 1
  32   16   63 1
  33   16   64 1
  34   17   65 1
  35   17   66 1
  36   18   19 1
  37   18   23 1
  38   18   67 1
  39   19   20 1
  40   19   68 1
  41   19   69 1
  42   20   21 1
  43   20   70 1
  44   20   71 1
  45   21   22 1
  46   21   24 1
  47   22   23 1
  48   22   72 1
  49   22   73 1
  50   23   74 1
  51   23   75 1
  52   24   43 1
  53   24   76 1
  54   24   77 1
  55   26   52 am
  56   26   28 1
  57   27   28 ar
  58   27   29 ar
  59   28   32 ar
  60   29   30 ar
  61   29   78 1
  62   30   31 ar
  63   30   45 1
  64   31   32 ar
  65   31   33 1
  66   32   79 1
  67   34   35 ar
  68   34   36 ar
  69   34   52 1
  70   35   41 1
  71   35   39 ar
  72   36   37 ar
  73   36   80 1
  74   37   38 ar
  75   37   81 1
  76   38   39 ar
  77   38   40 1
  78   39   82 1
  79   41   42 1
  80   42   83 1
  81   42   84 1
  82   42   85 1
  83   43   44 1
  84   43   86 1
  85   43   87 1
  86   44   88 1
  87   44   89 1
  88   44   90 1
  89   45   46 3
  90   47   48 1
  91   48   49 1
  92   48   91 1
  93   48   92 1
  94   49   50 1
  95   49   51 1
  96   49   93 1
  97   52   53 2
  98   52   54 2

#	End of record

