#	Name: ASD01940336
#	Creating user name:	WinNT
#	Creation time:	15. 06. 2019 20:12

#	Modifying user name:	WinNT
#	Modification time:	15. 06. 2019 20:12

#	Program:	/corina/corina34_cracker 3.40 0067  02.08.2006

@<TRIPOS>MOLECULE
ASD01940336
  42   44    0    0    0
SMALL
NO_CHARGES


@<TRIPOS>ATOM
   1 C1            -2.3733     1.8501     1.3433 C.ar    
   2 C2            -3.5702     2.5275     1.4956 C.ar    
   3 C3            -4.3879     2.2514     2.5767 C.ar    
   4 C4            -4.0088     1.2990     3.5042 C.ar    
   5 C5            -2.8129     0.6230     3.3517 C.ar    
   6 C6            -1.9954     0.8983     2.2711 C.ar    
   7 S7            -1.3346     2.1960    -0.0373 S.o2    
   8 O8            -1.1782     3.6078    -0.0781 O.2     
   9 O9            -0.2392     1.2949     0.0489 O.2     
  10 N10           -2.1767     1.7792    -1.4009 N.am    
  11 C11           -4.8994     0.9980     4.6820 C.3     
  12 F12           -5.7910    -0.0254     4.3430 F       
  13 F13           -4.1157     0.5930     5.7678 F       
  14 F14           -5.6184     2.1470     5.0286 F       
  15 C15           -2.4842     0.4352    -1.6512 C.ar    
  16 C16           -2.5230    -0.0402    -2.9614 C.ar    
  17 C17           -2.8276    -1.3728    -3.2034 C.ar    
  18 C18           -3.0919    -2.2257    -2.1432 C.ar    
  19 C19           -3.0532    -1.7512    -0.8436 C.ar    
  20 C20           -2.7447    -0.4258    -0.5961 C.ar    
  21 N21           -2.2556     0.8250    -4.0311 N.pl3   
  22 C22           -2.6491     0.4770    -5.3271 C.ar    
  23 C23           -3.9923     0.5314    -5.6864 C.ar    
  24 C24           -4.3769     0.1870    -6.9686 C.ar    
  25 C25           -3.4276    -0.2117    -7.8933 C.ar    
  26 C26           -2.0922    -0.2670    -7.5381 C.ar    
  27 C27           -1.6999     0.0818    -6.2599 C.ar    
  28 I28           -4.0149    -0.7336    -9.8354 I       
  29 F29           -4.9190     0.9199    -4.7834 F       
  30 F30           -3.3884    -3.5225    -2.3789 F       
  31 F31           -2.8668    -1.8378    -4.4712 F       
  32 Cl32          -4.0453     3.7238     0.3308 Cl      
  33 H33           -5.3220     2.7800     2.6963 H       
  34 H34           -2.5168    -0.1205     4.0770 H       
  35 H35           -1.0612     0.3695     2.1523 H       
  36 H36           -2.4572     2.4655    -2.0264 H       
  37 H37           -3.2605    -2.4187    -0.0203 H       
  38 H38           -2.7107    -0.0603     0.4196 H       
  39 H39           -1.7976     1.6653    -3.8725 H       
  40 H40           -5.4191     0.2288    -7.2490 H       
  41 H41           -1.3543    -0.5793    -8.2622 H       
  42 H42           -0.6561     0.0425    -5.9853 H       
@<TRIPOS>BOND
   1    1    2 ar
   2    1    6 ar
   3    1    7 1
   4    2    3 ar
   5    2   32 1
   6    3    4 ar
   7    3   33 1
   8    4    5 ar
   9    4   11 1
  10    5    6 ar
  11    5   34 1
  12    6   35 1
  13    7    8 2
  14    7    9 2
  15    7   10 am
  16   10   15 1
  17   10   36 1
  18   11   12 1
  19   11   13 1
  20   11   14 1
  21   15   16 ar
  22   15   20 ar
  23   16   17 ar
  24   16   21 1
  25   17   18 ar
  26   17   31 1
  27   18   19 ar
  28   18   30 1
  29   19   20 ar
  30   19   37 1
  31   20   38 1
  32   21   22 1
  33   21   39 1
  34   22   23 ar
  35   22   27 ar
  36   23   24 ar
  37   23   29 1
  38   24   25 ar
  39   24   40 1
  40   25   26 ar
  41   25   28 1
  42   26   27 ar
  43   26   41 1
  44   27   42 1

#	End of record

