#	Name: ASD01913935
#	Creating user name:	WinNT
#	Creation time:	15. 06. 2019 20:02

#	Modifying user name:	WinNT
#	Modification time:	15. 06. 2019 20:02

#	Program:	/corina/corina34_cracker 3.40 0067  02.08.2006

@<TRIPOS>MOLECULE
ASD01913935
  42   44    0    0    0
SMALL
NO_CHARGES


@<TRIPOS>ATOM
   1 C1             0.0424     1.4282     0.0693 C.ar    
   2 C2             0.0617    -0.0036     0.0604 C.1     
   3 C3             0.0775    -1.1775     0.0530 C.1     
   4 C4             0.0968    -2.6093     0.0441 C.ar    
   5 N5             0.1551    -3.2837     1.1927 N.ar    
   6 C6             0.1297    -5.2904    -0.0285 C.ar    
   7 N7             0.0663    -4.6220    -1.1738 N.ar    
   8 C8             0.0488    -3.3029    -1.1689 C.ar    
   9 C9             0.1723    -4.6017     1.1817 C.ar    
  10 C10            0.0903     2.1234     1.2810 C.ar    
  11 C11            0.0051     4.1992     0.0899 C.ar    
  12 N12            0.1480    -6.6834    -0.0367 N.am    
  13 C13           -0.0186     2.1367    -1.1332 C.ar    
  14 C14            0.0714     3.5023     1.2833 C.ar    
  15 C15           -0.0369     3.5181    -1.1163 C.ar    
  16 F16           -0.0959     4.2060    -2.2776 F       
  17 C17           -1.0216    -7.3239    -0.0235 C.2     
  18 C18           -1.1472    -8.8198     0.0185 C.3     
  19 C19            0.1784    -9.4655    -0.3925 C.3     
  20 C20            1.3084    -8.8008     0.4028 C.3     
  21 C21            1.4442    -7.3493    -0.0650 C.3     
  22 C22            0.1406   -10.9628    -0.0806 C.3     
  23 C23            0.4106    -9.2564    -1.8903 C.3     
  24 O24           -2.0382    -6.6629    -0.0461 O.2     
  25 H25           -0.0029    -2.7594    -2.1007 H       
  26 H26            0.2198    -5.1483     2.1119 H       
  27 H27            0.1417     1.5816     2.2139 H       
  28 H28           -0.0098     5.2791     0.0981 H       
  29 H29           -0.0510     1.6061    -2.0733 H       
  30 H30            0.1035     4.0396     2.2196 H       
  31 H31           -1.4043    -9.1333     1.0303 H       
  32 H32           -1.9324    -9.1366    -0.6679 H       
  33 H33            1.0706    -8.8253     1.4663 H       
  34 H34            2.2435    -9.3310     0.2225 H       
  35 H35            1.8422    -7.3335    -1.0796 H       
  36 H36            2.1306    -6.8204     0.5962 H       
  37 H37           -0.6752   -11.4287    -0.6334 H       
  38 H38            1.0858   -11.4192    -0.3745 H       
  39 H39           -0.0158   -11.1074     0.9884 H       
  40 H40            0.4461    -8.1887    -2.1069 H       
  41 H41            1.3551    -9.7173    -2.1793 H       
  42 H42           -0.4039    -9.7142    -2.4517 H       
@<TRIPOS>BOND
   1    1    2 1
   2    1   13 ar
   3    1   10 ar
   4    2    3 3
   5    3    4 1
   6    4    5 ar
   7    4    8 ar
   8    5    9 ar
   9    6    7 ar
  10    6   12 1
  11    6    9 ar
  12    7    8 ar
  13    8   25 1
  14    9   26 1
  15   10   14 ar
  16   10   27 1
  17   11   14 ar
  18   11   15 ar
  19   11   28 1
  20   12   17 am
  21   12   21 1
  22   13   15 ar
  23   13   29 1
  24   14   30 1
  25   15   16 1
  26   17   18 1
  27   17   24 2
  28   18   19 1
  29   18   31 1
  30   18   32 1
  31   19   20 1
  32   19   22 1
  33   19   23 1
  34   20   21 1
  35   20   33 1
  36   20   34 1
  37   21   35 1
  38   21   36 1
  39   22   37 1
  40   22   38 1
  41   22   39 1
  42   23   40 1
  43   23   41 1
  44   23   42 1

#	End of record

