#	Name: ASD01911324
#	Creating user name:	WinNT
#	Creation time:	15. 06. 2019 19:57

#	Modifying user name:	WinNT
#	Modification time:	15. 06. 2019 19:57

#	Program:	/corina/corina34_cracker 3.40 0067  02.08.2006

@<TRIPOS>MOLECULE
ASD01911324
  32   34    0    0    0
SMALL
NO_CHARGES


@<TRIPOS>ATOM
   1 C1            -0.0168     1.3844     0.0097 C.ar    
   2 C2             0.0021    -0.0041     0.0020 C.ar    
   3 C3            -1.2088    -0.6808     0.0099 C.ar    
   4 C4            -2.3941     0.0536     0.0281 C.ar    
   5 N5            -2.3666     1.3762     0.0335 N.ar    
   6 C6            -1.2282     2.0451     0.0305 C.ar    
   7 O7            -1.2251    -2.0386    -0.0048 O.3     
   8 C8            -2.4188    -2.6932     0.4330 C.3     
   9 C9            -3.6203    -2.0546    -0.2781 C.3     
  10 N10           -3.6198    -0.6181     0.0452 N.pl3   
  11 C11            1.2738     2.1625     0.0015 C.3     
  12 O12            1.6688     2.4157    -1.3483 O.3     
  13 C13            2.8209     3.1123    -1.5336 C.ar    
  14 C14            3.2638     3.3937    -2.8179 C.ar    
  15 C15            4.4353     4.1019    -3.0036 C.ar    
  16 C16            5.1661     4.5303    -1.9109 C.ar    
  17 C17            4.7271     4.2508    -0.6299 C.ar    
  18 C18            3.5531     3.5482    -0.4388 C.ar    
  19 H19            0.9372    -0.5442    -0.0101 H       
  20 H20           -1.2455     3.1249     0.0352 H       
  21 H21           -2.3672    -3.7529     0.1833 H       
  22 H22           -2.5266    -2.5742     1.5111 H       
  23 H23           -3.5273    -2.1909    -1.3555 H       
  24 H24           -4.5445    -2.5124     0.0747 H       
  25 H25           -4.4428    -0.1533     0.2631 H       
  26 H26            1.1304     3.1095     0.5218 H       
  27 H27            2.0493     1.5852     0.5049 H       
  28 H28            2.6935     3.0589    -3.6717 H       
  29 H29            4.7807     4.3208    -4.0032 H       
  30 H30            6.0817     5.0839    -2.0581 H       
  31 H31            5.3001     4.5859     0.2220 H       
  32 H32            3.2105     3.3302     0.5620 H       
@<TRIPOS>BOND
   1    1    2 ar
   2    1   11 1
   3    1    6 ar
   4    2    3 ar
   5    2   19 1
   6    3    4 ar
   7    3    7 1
   8    4    5 ar
   9    4   10 1
  10    5    6 ar
  11    6   20 1
  12    7    8 1
  13    8    9 1
  14    8   21 1
  15    8   22 1
  16    9   10 1
  17    9   23 1
  18    9   24 1
  19   10   25 1
  20   11   12 1
  21   11   26 1
  22   11   27 1
  23   12   13 1
  24   13   14 ar
  25   13   18 ar
  26   14   15 ar
  27   14   28 1
  28   15   16 ar
  29   15   29 1
  30   16   17 ar
  31   16   30 1
  32   17   18 ar
  33   17   31 1
  34   18   32 1

#	End of record

