#	Name: ASD07931699
#	Creating user name:	WinNT
#	Creation time:	15. 06. 2019 21:13

#	Modifying user name:	WinNT
#	Modification time:	15. 06. 2019 21:13

#	Program:	/corina/corina34_cracker 3.40 0067  02.08.2006

@<TRIPOS>MOLECULE
ASD07931699
  57   61    0    0    0
SMALL
NO_CHARGES


@<TRIPOS>ATOM
   1 C1             0.4907    -0.3651    -0.7680 C.2     
   2 C2             0.8657    -1.6688    -0.9450 C.2     
   3 C3             2.2920    -2.0023    -0.9267 C.2     
   4 N4             3.1942    -1.0242    -0.7353 N.am    
   5 C5             2.7918     0.2807    -0.5616 C.2     
   6 C6             1.4725     0.6145    -0.5748 C.2     
   7 C7             4.6319    -1.3250    -0.7051 C.3     
   8 C8             5.3682    -0.2057    -1.4564 C.3     
   9 N9             5.0875     1.0707    -0.7837 N.am    
  10 C10            3.8253     1.3202    -0.3602 C.2     
  11 C11            6.1529     2.0544    -0.5750 C.3     
  12 O12            2.6571    -3.1551    -1.0830 O.2     
  13 N13           -0.0952    -2.6650    -1.1396 N.pl3   
  14 C14           -0.9466    -2.7790    -2.2086 C.2     
  15 C15           -0.3585    -3.7072    -0.3080 C.2     
  16 N16           -1.3196    -4.4209    -0.8278 N.2     
  17 C17           -1.6990    -3.8746    -1.9928 C.2     
  18 C18           -2.7805    -4.3971    -2.9029 C.3     
  19 O19            3.5473     2.3765     0.1737 O.2     
  20 C20            5.7866     3.3606    -1.2825 C.3     
  21 C21            6.8992     4.3880    -1.0646 C.3     
  22 C22            7.0662     4.6489     0.4337 C.3     
  23 C23            7.4325     3.3427     1.1412 C.3     
  24 C24            6.3198     2.3153     0.9233 C.3     
  25 O25            5.6306     3.1169    -2.6819 O.3     
  26 C26            4.8295     3.9714    -3.3715 C.ar    
  27 C27            4.5432     3.7297    -4.7072 C.ar    
  28 C28            3.7284     4.5990    -5.4063 C.ar    
  29 C29            3.1980     5.7103    -4.7751 C.ar    
  30 C30            3.4825     5.9530    -3.4430 C.ar    
  31 C31            4.2926     5.0832    -2.7391 C.ar    
  32 Cl32           2.1748     6.8016    -5.6560 Cl      
  33 H33           -0.5544    -0.0929    -0.7815 H       
  34 H34            1.1800     1.6448    -0.4353 H       
  35 H35            4.9782    -1.3649     0.3276 H       
  36 H36            4.8185    -2.2812    -1.1940 H       
  37 H37            6.4408    -0.3991    -1.4421 H       
  38 H38            5.0147    -0.1621    -2.4866 H       
  39 H39            7.0875     1.6698    -0.9832 H       
  40 H40           -1.0028    -2.1171    -3.0602 H       
  41 H41            0.1437    -3.9108     0.6263 H       
  42 H42           -3.7352    -3.9493    -2.6270 H       
  43 H43           -2.5430    -4.1390    -3.9350 H       
  44 H44           -2.8456    -5.4807    -2.8051 H       
  45 H45            4.8519     3.7452    -0.8743 H       
  46 H46            7.8338     4.0034    -1.4728 H       
  47 H47            6.6382     5.3186    -1.5686 H       
  48 H48            7.8588     5.3808     0.5890 H       
  49 H49            6.1315     5.0335     0.8419 H       
  50 H50            8.3671     2.9581     0.7330 H       
  51 H51            7.5514     3.5286     2.2086 H       
  52 H52            5.3852     2.6999     1.3315 H       
  53 H53            6.5808     1.3847     1.4273 H       
  54 H54            4.9573     2.8626    -5.2002 H       
  55 H55            3.5056     4.4114    -6.4462 H       
  56 H56            3.0675     6.8209    -2.9520 H       
  57 H57            4.5143     5.2730    -1.6993 H       
@<TRIPOS>BOND
   1    1    2 2
   2    1    6 1
   3    1   33 1
   4    2    3 1
   5    2   13 1
   6    3    4 am
   7    3   12 2
   8    4    5 1
   9    4    7 1
  10    5    6 2
  11    5   10 1
  12    6   34 1
  13    7    8 1
  14    7   35 1
  15    7   36 1
  16    8    9 1
  17    8   37 1
  18    8   38 1
  19    9   10 am
  20    9   11 1
  21   10   19 2
  22   11   20 1
  23   11   24 1
  24   11   39 1
  25   13   14 1
  26   13   15 1
  27   14   17 2
  28   14   40 1
  29   15   16 2
  30   15   41 1
  31   16   17 1
  32   17   18 1
  33   18   42 1
  34   18   43 1
  35   18   44 1
  36   20   21 1
  37   20   25 1
  38   20   45 1
  39   21   22 1
  40   21   46 1
  41   21   47 1
  42   22   23 1
  43   22   48 1
  44   22   49 1
  45   23   24 1
  46   23   50 1
  47   23   51 1
  48   24   52 1
  49   24   53 1
  50   25   26 1
  51   26   27 ar
  52   26   31 ar
  53   27   28 ar
  54   27   54 1
  55   28   29 ar
  56   28   55 1
  57   29   30 ar
  58   29   32 1
  59   30   31 ar
  60   30   56 1
  61   31   57 1

#	End of record

