#	Name: ASD01883678
#	Creating user name:	WinNT
#	Creation time:	15. 06. 2019 19:46

#	Modifying user name:	WinNT
#	Modification time:	15. 06. 2019 19:46

#	Program:	/corina/corina34_cracker 3.40 0067  02.08.2006

@<TRIPOS>MOLECULE
ASD01883678
  43   46    0    0    0
SMALL
NO_CHARGES


@<TRIPOS>ATOM
   1 C1             0.6443     2.0736     0.2932 C.2     
   2 C2             0.4707     0.6815     0.2865 C.2     
   3 C3            -0.8359     0.1549     0.3632 C.2     
   4 C4            -1.9068     0.9665     0.4420 C.2     
   5 N5            -1.7836     2.3257     0.4510 N.pl3   
   6 C6            -0.5484     2.9182     0.3863 C.2     
   7 C7            -2.7056     3.3377     0.5223 C.2     
   8 C8            -2.0228     4.5015     0.4932 C.2     
   9 N9            -0.7164     4.2280     0.4117 N.2     
  10 C10           -4.2014     3.1802     0.6156 C.3     
  11 C11           -4.8120     3.2697    -0.7844 C.3     
  12 F12           -4.2854     2.2533    -1.5887 F       
  13 F13           -6.2007     3.1234    -0.6978 F       
  14 F14           -4.5084     4.5141    -1.3469 F       
  15 C15            1.6386    -0.2196     0.2000 C.ar    
  16 C16            1.9507    -1.0655     1.2675 C.ar    
  17 C17            3.0394    -1.9039     1.1841 C.ar    
  18 C18            3.8293    -1.9092     0.0379 C.ar    
  19 C19            3.5208    -1.0676    -1.0272 C.ar    
  20 C20            2.4296    -0.2315    -0.9518 C.ar    
  21 S21            5.2227    -2.9828    -0.0649 S.3     
  22 C22            5.2917    -3.6977     1.5441 C.ar    
  23 C23            4.6651    -4.9127     1.7940 C.ar    
  24 C24            4.7212    -5.4699     3.0561 C.ar    
  25 C25            5.3997    -4.8201     4.0711 C.ar    
  26 C26            6.0242    -3.6106     3.8262 C.ar    
  27 C27            5.9778    -3.0507     2.5649 C.ar    
  28 C28            1.9519     2.6524     0.2171 C.1     
  29 N29            2.9892     3.1117     0.1567 N.1     
  30 H30           -0.9791    -0.9156     0.3583 H       
  31 H31           -2.8927     0.5293     0.4993 H       
  32 H32           -2.4585     5.4889     0.5332 H       
  33 H33           -4.4380     2.2106     1.0539 H       
  34 H34           -4.6118     3.9720     1.2422 H       
  35 H35            1.3386    -1.0613     2.1573 H       
  36 H36            3.2811    -2.5579     2.0089 H       
  37 H37            4.1354    -1.0738    -1.9152 H       
  38 H38            2.1907     0.4212    -1.7784 H       
  39 H39            4.1345    -5.4202     1.0020 H       
  40 H40            4.2344    -6.4140     3.2510 H       
  41 H41            5.4417    -5.2581     5.0574 H       
  42 H42            6.5528    -3.1058     4.6213 H       
  43 H43            6.4660    -2.1064     2.3743 H       
@<TRIPOS>BOND
   1    1    2 2
   2    1   28 1
   3    1    6 1
   4    2    3 1
   5    2   15 1
   6    3    4 2
   7    3   30 1
   8    4    5 1
   9    4   31 1
  10    5    6 1
  11    5    7 1
  12    6    9 2
  13    7    8 2
  14    7   10 1
  15    8    9 1
  16    8   32 1
  17   10   11 1
  18   10   33 1
  19   10   34 1
  20   11   12 1
  21   11   13 1
  22   11   14 1
  23   15   16 ar
  24   15   20 ar
  25   16   17 ar
  26   16   35 1
  27   17   18 ar
  28   17   36 1
  29   18   19 ar
  30   18   21 1
  31   19   20 ar
  32   19   37 1
  33   20   38 1
  34   21   22 1
  35   22   23 ar
  36   22   27 ar
  37   23   24 ar
  38   23   39 1
  39   24   25 ar
  40   24   40 1
  41   25   26 ar
  42   25   41 1
  43   26   27 ar
  44   26   42 1
  45   27   43 1
  46   28   29 3

#	End of record

