#	Name: ASD01815915
#	Creating user name:	WinNT
#	Creation time:	15. 06. 2019 19:34

#	Modifying user name:	WinNT
#	Modification time:	15. 06. 2019 19:34

#	Program:	/corina/corina34_cracker 3.40 0067  02.08.2006

@<TRIPOS>MOLECULE
ASD01815915
  52   57    0    0    0
SMALL
NO_CHARGES


@<TRIPOS>ATOM
   1 C1            -0.0755     1.3136     0.1763 C.ar    
   2 C2            -0.0315    -0.0709     0.1644 C.ar    
   3 C3             1.1769    -0.7363     0.0954 C.ar    
   4 C4             2.3673    -0.0165     0.0370 C.ar    
   5 C5             2.3197     1.3869     0.0488 C.ar    
   6 C6             1.0945     2.0467     0.1187 C.ar    
   7 N7             3.5823    -0.6780    -0.0313 N.pl3   
   8 C8             4.7607    -0.0376    -0.0896 C.2     
   9 C9             4.8385     1.3330    -0.0847 C.2     
  10 C10            3.5924     2.1298    -0.0138 C.2     
  11 C11            5.9164     2.3158    -0.1354 C.2     
  12 N12            5.3225     3.5281    -0.0964 N.am    
  13 N13            3.9344     3.3864    -0.0240 N.2     
  14 C14            6.0016     4.7535    -0.1246 C.ar    
  15 O15            7.1135     2.0879    -0.1997 O.2     
  16 C16            3.5814    -2.1430    -0.0399 C.3     
  17 C17            3.7085    -2.6537     1.3722 C.ar    
  18 C18            2.5838    -2.7673     2.1686 C.ar    
  19 C19            2.6971    -3.2346     3.4634 C.ar    
  20 C20            3.9418    -3.5909     3.9649 C.ar    
  21 C21            5.0691    -3.4762     3.1627 C.ar    
  22 C22            4.9487    -3.0131     1.8670 C.ar    
  23 N23            4.0601    -4.0651     5.2788 N.pl3   
  24 C24            5.2063    -4.4445     5.8878 C.2     
  25 F25            1.0505     3.3969     0.1295 F       
  26 F26            1.2039    -2.0870     0.0851 F       
  27 C27            4.8944    -4.8361     7.1450 C.2     
  28 C28            3.5125    -4.6918     7.3108 C.2     
  29 N29            3.0126    -4.2243     6.1953 N.2     
  30 C30            6.8880     5.0340    -1.1542 C.ar    
  31 C31            7.5563     6.2436    -1.1800 C.ar    
  32 C32            7.3443     7.1759    -0.1814 C.ar    
  33 C33            6.4624     6.9035     0.8483 C.ar    
  34 C34            5.7842     5.6961     0.8786 C.ar    
  35 O35            4.9164     5.4271     1.8901 O.3     
  36 H36           -1.0273     1.8215     0.2264 H       
  37 H37           -0.9510    -0.6356     0.2098 H       
  38 H38            5.6714    -0.6159    -0.1413 H       
  39 H39            2.6487    -2.5032    -0.4741 H       
  40 H40            4.4215    -2.5033    -0.6336 H       
  41 H41            1.6159    -2.4900     1.7780 H       
  42 H42            1.8185    -3.3225     4.0852 H       
  43 H43            6.0386    -3.7522     3.5501 H       
  44 H44            5.8252    -2.9236     1.2424 H       
  45 H45            6.1933    -4.4368     5.4494 H       
  46 H46            5.5894    -5.1964     7.8890 H       
  47 H47            2.9551    -4.9223     8.2066 H       
  48 H48            7.0560     4.3073    -1.9353 H       
  49 H49            8.2461     6.4608    -1.9821 H       
  50 H50            7.8693     8.1194    -0.2053 H       
  51 H51            6.2992     7.6341     1.6268 H       
  52 H52            4.0078     5.7068     1.7136 H       
@<TRIPOS>BOND
   1    1    2 ar
   2    1    6 ar
   3    1   36 1
   4    2    3 ar
   5    2   37 1
   6    3    4 ar
   7    3   26 1
   8    4    5 ar
   9    4    7 1
  10    5    6 ar
  11    5   10 1
  12    6   25 1
  13    7    8 1
  14    7   16 1
  15    8    9 2
  16    8   38 1
  17    9   10 1
  18    9   11 1
  19   10   13 2
  20   11   12 am
  21   11   15 2
  22   12   13 1
  23   12   14 1
  24   14   30 ar
  25   14   34 ar
  26   16   17 1
  27   16   39 1
  28   16   40 1
  29   17   18 ar
  30   17   22 ar
  31   18   19 ar
  32   18   41 1
  33   19   20 ar
  34   19   42 1
  35   20   21 ar
  36   20   23 1
  37   21   22 ar
  38   21   43 1
  39   22   44 1
  40   23   24 1
  41   23   29 1
  42   24   27 2
  43   24   45 1
  44   27   28 1
  45   27   46 1
  46   28   29 2
  47   28   47 1
  48   30   31 ar
  49   30   48 1
  50   31   32 ar
  51   31   49 1
  52   32   33 ar
  53   32   50 1
  54   33   34 ar
  55   33   51 1
  56   34   35 1
  57   35   52 1

#	End of record

