#	Name: ASD01912826
#	Creating user name:	WinNT
#	Creation time:	15. 06. 2019 20:00

#	Modifying user name:	WinNT
#	Modification time:	15. 06. 2019 20:00

#	Program:	/corina/corina34_cracker 3.40 0067  02.08.2006

@<TRIPOS>MOLECULE
ASD01912826
  39   42    0    0    0
SMALL
NO_CHARGES


@<TRIPOS>ATOM
   1 C1            -0.0165     1.3669     0.0096 C.2     
   2 N2             0.0021    -0.0041     0.0020 N.pl3   
   3 C3            -1.2023    -0.6921     0.0098 C.2     
   4 C4            -2.3629    -0.0499     0.0243 C.2     
   5 N5            -2.4359     1.3308     0.0320 N.am    
   6 C6            -1.3019     2.0668     0.0309 C.2     
   7 C7             1.3015     1.7836    -0.0008 C.2     
   8 C8             2.0550     0.6110    -0.0143 C.2     
   9 N9             1.2244    -0.4045    -0.0118 N.2     
  10 O10           -1.3488     3.2837     0.0380 O.2     
  11 C11           -3.6794     1.9643     0.0464 C.ar    
  12 C12            3.5595     0.5249    -0.0301 C.3     
  13 O13            4.1120     1.8428    -0.0292 O.3     
  14 C14            5.4673     1.9435    -0.0426 C.ar    
  15 C15            6.0683     3.1907    -0.0425 C.ar    
  16 C16            7.4605     3.2895    -0.0563 C.ar    
  17 C17            8.2374     2.1294    -0.0699 C.ar    
  18 C18            7.6275     0.8916    -0.0698 C.ar    
  19 C19            6.2485     0.7955    -0.0505 C.ar    
  20 N20           -3.7443     3.2826    -0.0520 N.ar    
  21 C21           -4.8374     1.2040     0.1582 C.ar    
  22 C22           -6.0648     1.8436     0.1709 C.ar    
  23 C23           -6.0907     3.2295     0.0707 C.ar    
  24 C24           -4.8981     3.9216    -0.0431 C.ar    
  25 F25           -7.2675     3.8930     0.0787 F       
  26 C26            8.0897     4.5759    -0.0568 C.1     
  27 N27            8.5889     5.5963    -0.0573 N.1     
  28 H28           -1.1950    -1.7720     0.0036 H       
  29 H29           -3.2784    -0.6227     0.0300 H       
  30 H30            1.6684     2.7994     0.0008 H       
  31 H31            3.9019    -0.0132     0.8538 H       
  32 H32            3.8837    -0.0044    -0.9260 H       
  33 H33            5.4619     4.0843    -0.0323 H       
  34 H34            9.3150     2.2009    -0.0810 H       
  35 H35            8.2294    -0.0051    -0.0807 H       
  36 H36            5.7768    -0.1761    -0.0501 H       
  37 H37           -4.7804     0.1282     0.2338 H       
  38 H38           -6.9813     1.2787     0.2563 H       
  39 H39           -4.9118     4.9987    -0.1213 H       
@<TRIPOS>BOND
   1    1    2 1
   2    1    7 2
   3    1    6 1
   4    2    3 1
   5    2    9 1
   6    3    4 2
   7    3   28 1
   8    4    5 1
   9    4   29 1
  10    5    6 am
  11    5   11 1
  12    6   10 2
  13    7    8 1
  14    7   30 1
  15    8    9 2
  16    8   12 1
  17   11   21 ar
  18   11   20 ar
  19   12   13 1
  20   12   31 1
  21   12   32 1
  22   13   14 1
  23   14   15 ar
  24   14   19 ar
  25   15   16 ar
  26   15   33 1
  27   16   17 ar
  28   16   26 1
  29   17   18 ar
  30   17   34 1
  31   18   19 ar
  32   18   35 1
  33   19   36 1
  34   20   24 ar
  35   21   22 ar
  36   21   37 1
  37   22   23 ar
  38   22   38 1
  39   23   24 ar
  40   23   25 1
  41   24   39 1
  42   26   27 3

#	End of record

