#	Name: ASD05430662
#	Creating user name:	WinNT
#	Creation time:	15. 06. 2019 21:00

#	Modifying user name:	WinNT
#	Modification time:	15. 06. 2019 21:00

#	Program:	/corina/corina34_cracker 3.40 0067  02.08.2006

@<TRIPOS>MOLECULE
ASD05430662
  21   21    0    0    0
SMALL
NO_CHARGES


@<TRIPOS>ATOM
   1 C1            -0.0167     1.3779     0.0096 C.ar    
   2 C2             0.0021    -0.0041     0.0020 C.ar    
   3 C3            -1.1873    -0.7132     0.0100 C.ar    
   4 C4            -2.4126     1.3465     0.0439 C.ar    
   5 C5            -1.2221     2.0536     0.0305 C.ar    
   6 C6             1.2784     2.1485     0.0014 C.3     
   7 C7            -2.3952    -0.0375     0.0256 C.ar    
   8 C8             1.3359     3.0358    -1.2437 C.3     
   9 C9             1.3598     3.0224     1.2546 C.3     
  10 F10           -3.5909     2.0072     0.0648 F       
  11 F11           -1.1687    -2.0641     0.0021 F       
  12 H12            0.9447    -0.5311    -0.0105 H       
  13 H13           -1.2354     3.1334     0.0447 H       
  14 H14            2.1160     1.4511    -0.0104 H       
  15 H15           -3.3233    -0.5898     0.0316 H       
  16 H16            2.2726     3.5932    -1.2497 H       
  17 H17            1.2779     2.4132    -2.1365 H       
  18 H18            0.4983     3.7331    -1.2320 H       
  19 H19            1.3188     2.3902     2.1417 H       
  20 H20            2.2965     3.5797     1.2487 H       
  21 H21            0.5221     3.7197     1.2664 H       
@<TRIPOS>BOND
   1    1    2 ar
   2    1    6 1
   3    1    5 ar
   4    2    3 ar
   5    2   12 1
   6    3    7 ar
   7    3   11 1
   8    4    5 ar
   9    4   10 1
  10    4    7 ar
  11    5   13 1
  12    6    8 1
  13    6    9 1
  14    6   14 1
  15    7   15 1
  16    8   16 1
  17    8   17 1
  18    8   18 1
  19    9   19 1
  20    9   20 1
  21    9   21 1

#	End of record

