#	Name: ASD01812402
#	Creating user name:	WinNT
#	Creation time:	15. 06. 2019 19:28

#	Modifying user name:	WinNT
#	Modification time:	15. 06. 2019 19:28

#	Program:	/corina/corina34_cracker 3.40 0067  02.08.2006

@<TRIPOS>MOLECULE
ASD01812402
  58   63    0    0    0
SMALL
NO_CHARGES


@<TRIPOS>ATOM
   1 O1            -0.0173     1.4248     0.0099 O.3     
   2 C2             0.0021    -0.0041     0.0020 C.3     
   3 C3             0.7421    -0.5109     1.2415 C.3     
   4 C4             0.7628    -2.0407     1.2331 C.3     
   5 C5            -0.6726    -2.5703     1.2440 C.3     
   6 C6            -1.4126    -2.0635     0.0045 C.3     
   7 C7            -1.4333    -0.5336     0.0129 C.3     
   8 N8            -2.1190    -0.0612     1.2182 N.am    
   9 N9            -1.7113    -0.3324     2.5267 N.2     
  10 C10           -2.5136     0.2188     3.3903 C.2     
  11 C11           -3.5635     0.9302     2.6263 C.2     
  12 C12           -4.5483     1.6043     3.3048 C.2     
  13 N13           -4.5863     1.6366     4.6467 N.pl3   
  14 C14           -5.6698     2.3772     5.2976 C.3     
  15 C15           -6.8408     1.4566     5.5265 C.ar    
  16 C16           -7.8166     1.3268     4.5554 C.ar    
  17 C17           -8.8912     0.4842     4.7624 C.ar    
  18 C18           -8.9908    -0.2333     5.9468 C.ar    
  19 C19           -8.0092    -0.1013     6.9198 C.ar    
  20 C20           -6.9343     0.7390     6.7048 C.ar    
  21 N21          -10.0805    -1.0890     6.1601 N.pl3   
  22 C22          -10.3006    -1.8372     7.2648 C.2     
  23 C23          -11.4547    -2.5184     7.0774 C.2     
  24 C24          -11.9573    -2.1761     5.8173 C.2     
  25 N25          -11.1374    -1.3158     5.2691 N.2     
  26 C26           -3.6487     1.0018     5.4430 C.ar    
  27 C27           -3.7406     1.0710     6.8286 C.ar    
  28 C28           -2.8024     0.4363     7.6160 C.ar    
  29 C29           -1.7619    -0.2747     7.0404 C.ar    
  30 C30           -1.6531    -0.3559     5.6671 C.ar    
  31 C31           -2.5928     0.2797     4.8627 C.ar    
  32 C32           -3.2323     0.7035     1.2230 C.2     
  33 O33           -3.8402     1.1192     0.2499 O.2     
  34 H34            0.8606     1.8301     0.0037 H       
  35 H35            0.5123    -0.3556    -0.8948 H       
  36 H36            1.7647    -0.1336     1.2338 H       
  37 H37            0.2319    -0.1594     2.1383 H       
  38 H38            1.2730    -2.3923     0.3363 H       
  39 H39            1.2900    -2.4018     2.1162 H       
  40 H40           -0.6578    -3.6602     1.2380 H       
  41 H41           -1.1828    -2.2188     2.1408 H       
  42 H42           -0.9024    -2.4150    -0.8923 H       
  43 H43           -2.4352    -2.4408     0.0122 H       
  44 H44           -1.9605    -0.1726    -0.8702 H       
  45 H45           -5.3125     2.1226     2.7446 H       
  46 H46           -5.3207     2.7658     6.2543 H       
  47 H47           -5.9782     3.2055     4.6598 H       
  48 H48           -7.7386     1.8852     3.6342 H       
  49 H49           -9.6534     0.3838     4.0039 H       
  50 H50           -8.0842    -0.6579     7.8423 H       
  51 H51           -6.1682     0.8387     7.4594 H       
  52 H52           -9.6686    -1.8831     8.1394 H       
  53 H53          -11.9079    -3.2051     7.7771 H       
  54 H54          -12.8672    -2.5538     5.3748 H       
  55 H55           -4.5471     1.6225     7.2889 H       
  56 H56           -2.8796     0.4944     8.6917 H       
  57 H57           -1.0336    -0.7665     7.6682 H       
  58 H58           -0.8415    -0.9100     5.2191 H       
@<TRIPOS>BOND
   1    1    2 1
   2    1   34 1
   3    2    7 1
   4    2    3 1
   5    2   35 1
   6    3    4 1
   7    3   36 1
   8    3   37 1
   9    4    5 1
  10    4   38 1
  11    4   39 1
  12    5    6 1
  13    5   40 1
  14    5   41 1
  15    6    7 1
  16    6   42 1
  17    6   43 1
  18    7    8 1
  19    7   44 1
  20    8   32 am
  21    8    9 1
  22    9   10 2
  23   10   31 1
  24   10   11 1
  25   11   12 2
  26   11   32 1
  27   12   13 1
  28   12   45 1
  29   13   14 1
  30   13   26 1
  31   14   15 1
  32   14   46 1
  33   14   47 1
  34   15   20 ar
  35   15   16 ar
  36   16   17 ar
  37   16   48 1
  38   17   18 ar
  39   17   49 1
  40   18   19 ar
  41   18   21 1
  42   19   20 ar
  43   19   50 1
  44   20   51 1
  45   21   25 1
  46   21   22 1
  47   22   23 2
  48   22   52 1
  49   23   24 1
  50   23   53 1
  51   24   25 2
  52   24   54 1
  53   26   31 ar
  54   26   27 ar
  55   27   28 ar
  56   27   55 1
  57   28   29 ar
  58   28   56 1
  59   29   30 ar
  60   29   57 1
  61   30   31 ar
  62   30   58 1
  63   32   33 2

#	End of record

