#	Name: ASD04880736
#	Creating user name:	WinNT
#	Creation time:	15. 06. 2019 20:53

#	Modifying user name:	WinNT
#	Modification time:	15. 06. 2019 20:53

#	Program:	/corina/corina34_cracker 3.40 0067  02.08.2006

@<TRIPOS>MOLECULE
ASD04880736
  82   88    0    0    0
SMALL
NO_CHARGES


@<TRIPOS>ATOM
   1 C1             0.0071     1.3658     0.0064 C.ar    
   2 C2            -1.1970     2.0425     0.0686 C.ar    
   3 C3            -1.2156     3.4247     0.1134 C.ar    
   4 C4            -0.0308     4.1336     0.0960 C.ar    
   5 C5             1.1810     3.4568     0.0335 C.ar    
   6 C6             1.1960     2.0687    -0.0113 C.ar    
   7 C7            -0.0520     5.6397     0.1443 C.3     
   8 N8             2.3813     4.1708     0.0153 N.3     
   9 C9             3.1847     3.8809     1.2112 C.3     
  10 C10            3.1436     3.8883    -1.2089 C.3     
  11 C11            4.4101     4.7475    -1.2277 C.3     
  12 N12            5.2134     4.4576    -0.0318 N.3     
  13 C13            4.4511     4.7401     1.1924 C.3     
  14 C14            6.4101     5.1694    -0.0499 C.ar    
  15 C15            6.6414     6.1612     0.8971 C.ar    
  16 C16            7.8256     6.8618     0.8859 C.ar    
  17 C17            8.5701     5.5822    -1.0297 C.ar    
  18 C18            7.3778     4.8811    -1.0163 C.ar    
  19 N19            7.1406     3.8827    -1.9704 N.am    
  20 C20            7.6297     4.0142    -3.2194 C.2     
  21 C21            7.4888     2.9104    -4.1860 C.2     
  22 O22            8.1872     5.0438    -3.5488 O.2     
  23 C23            6.9653     1.0012    -5.0470 C.2     
  24 O24            7.6010     1.7079    -5.9921 O.3     
  25 C25            7.9359     2.8994    -5.4715 C.2     
  26 N26            6.8926     1.7085    -3.9594 N.2     
  27 C27            8.8021     6.5695    -0.0729 C.ar    
  28 C28            8.0789     7.9539     1.8920 C.3     
  29 C29            9.5653     8.0171     2.2345 C.3     
  30 N30           10.3777     8.0734     1.0210 N.am    
  31 C31           10.0675     7.3279    -0.0564 C.2     
  32 O32           10.8262     7.2759    -1.0052 O.2     
  33 C33            6.4205    -0.3934    -5.2188 C.3     
  34 C34            5.3589    -0.6089    -6.2992 C.3     
  35 C35            6.7794    -1.1384    -6.5060 C.3     
  36 C36           11.5472     8.9546     0.9761 C.3     
  37 C37           12.8044     8.1209     0.7206 C.3     
  38 C38           14.0258     9.0412     0.6737 C.3     
  39 C39           13.8526    10.0614    -0.4533 C.3     
  40 C40           12.5954    10.8951    -0.1978 C.3     
  41 C41           11.3740     9.9748    -0.1509 C.3     
  42 O42           10.1998    10.7535     0.0877 O.3     
  43 O43           12.7236    11.5804     1.0496 O.3     
  44 H44            0.0183     0.2863    -0.0239 H       
  45 H45           -2.1252     1.4905     0.0820 H       
  46 H46           -2.1579     3.9502     0.1616 H       
  47 H47            2.1363     1.5396    -0.0599 H       
  48 H48           -0.0227     5.9704     1.1825 H       
  49 H49            0.8150     6.0325    -0.3867 H       
  50 H50           -0.9637     6.0055    -0.3279 H       
  51 H51            2.6032     4.1099     2.1043 H       
  52 H52            3.4607     2.8264     1.2171 H       
  53 H53            3.4191     2.8339    -1.2305 H       
  54 H54            2.5322     4.1227    -2.0802 H       
  55 H55            4.9916     4.5185    -2.1207 H       
  56 H56            4.1341     5.8020    -1.2336 H       
  57 H57            4.1756     5.7945     1.2140 H       
  58 H58            5.0626     4.5057     2.0638 H       
  59 H59            5.8909     6.3819     1.6417 H       
  60 H60            9.3178     5.3662    -1.7784 H       
  61 H61            6.6244     3.0968    -1.7319 H       
  62 H62            8.4602     3.6971    -5.9766 H       
  63 H63            7.7632     8.9101     1.4747 H       
  64 H64            7.5076     7.7505     2.7977 H       
  65 H65            9.7570     8.9059     2.8357 H       
  66 H66            9.8389     7.1316     2.8082 H       
  67 H67            6.3344    -0.9804    -4.3044 H       
  68 H68            4.5746    -1.3381    -6.0959 H       
  69 H69            5.0545     0.2579    -6.8858 H       
  70 H70            7.4095    -0.6199    -7.2286 H       
  71 H71            6.9296    -2.2159    -6.4387 H       
  72 H72           11.6450     9.4774     1.9275 H       
  73 H73           12.9277     7.3941     1.5235 H       
  74 H74           12.7066     7.5982    -0.2308 H       
  75 H75           14.1236     9.5640     1.6252 H       
  76 H76           14.9214     8.4473     0.4917 H       
  77 H77           14.7228    10.7171    -0.4867 H       
  78 H78           13.7548     9.5387    -1.4047 H       
  79 H79           12.4721    11.6219    -1.0007 H       
  80 H80           11.2762     9.4521    -1.1024 H       
  81 H81           10.0272    11.4224    -0.5890 H       
  82 H82           13.4789    12.1829     1.0915 H       
@<TRIPOS>BOND
   1    1    2 ar
   2    1    6 ar
   3    1   44 1
   4    2    3 ar
   5    2   45 1
   6    3    4 ar
   7    3   46 1
   8    4    5 ar
   9    4    7 1
  10    5    6 ar
  11    5    8 1
  12    6   47 1
  13    7   48 1
  14    7   49 1
  15    7   50 1
  16    8   10 1
  17    8    9 1
  18    9   13 1
  19    9   51 1
  20    9   52 1
  21   10   11 1
  22   10   53 1
  23   10   54 1
  24   11   12 1
  25   11   55 1
  26   11   56 1
  27   12   13 1
  28   12   14 1
  29   13   57 1
  30   13   58 1
  31   14   15 ar
  32   14   18 ar
  33   15   16 ar
  34   15   59 1
  35   16   28 1
  36   16   27 ar
  37   17   18 ar
  38   17   27 ar
  39   17   60 1
  40   18   19 1
  41   19   20 am
  42   19   61 1
  43   20   21 1
  44   20   22 2
  45   21   26 1
  46   21   25 2
  47   23   24 1
  48   23   26 2
  49   23   33 1
  50   24   25 1
  51   25   62 1
  52   27   31 1
  53   28   29 1
  54   28   63 1
  55   28   64 1
  56   29   30 1
  57   29   65 1
  58   29   66 1
  59   30   31 am
  60   30   36 1
  61   31   32 2
  62   33   34 1
  63   33   35 1
  64   33   67 1
  65   34   35 1
  66   34   68 1
  67   34   69 1
  68   35   70 1
  69   35   71 1
  70   36   37 1
  71   36   41 1
  72   36   72 1
  73   37   38 1
  74   37   73 1
  75   37   74 1
  76   38   39 1
  77   38   75 1
  78   38   76 1
  79   39   40 1
  80   39   77 1
  81   39   78 1
  82   40   41 1
  83   40   43 1
  84   40   79 1
  85   41   42 1
  86   41   80 1
  87   42   81 1
  88   43   82 1

#	End of record

