#	Name: ASD00311141
#	Creating user name:	WinNT
#	Creation time:	15. 06. 2019 18:34

#	Modifying user name:	WinNT
#	Modification time:	15. 06. 2019 18:34

#	Program:	/corina/corina34_cracker 3.40 0067  02.08.2006

@<TRIPOS>MOLECULE
ASD00311141
  45   49    0    0    0
SMALL
NO_CHARGES


@<TRIPOS>ATOM
   1 C1            -0.0171     1.4133     0.0098 C.ar    
   2 C2             0.0021    -0.0041     0.0020 C.ar    
   3 C3             1.2370    -0.6810    -0.0167 C.ar    
   4 C4             2.4032     0.0882    -0.0247 C.ar    
   5 C5             2.3010     1.4848    -0.0142 C.ar    
   6 N6             1.1371     2.0915     0.0024 N.ar    
   7 N7            -1.1801     2.0753     0.0189 N.ar    
   8 C8            -1.2199    -0.7183     0.0145 C.ar    
   9 C9            -2.4014     0.0305     0.0312 C.ar    
  10 C10           -3.7228    -0.6028     0.0547 C.2     
  11 C11           -4.8488     0.1668     0.7114 C.3     
  12 C12           -4.7566     1.6189     0.3294 C.2     
  13 C13           -3.6090     2.2037     0.0259 C.2     
  14 C14           -2.3412     1.4506     0.0208 C.ar    
  15 O15           -3.9068    -1.6989    -0.4326 O.2     
  16 C16           -1.2466    -2.1960     0.0095 C.ar    
  17 C17           -0.7355    -2.9104     1.0951 C.ar    
  18 C18           -0.7635    -4.2894     1.0839 C.ar    
  19 C19           -1.2960    -4.9650    -0.0001 C.ar    
  20 C20           -1.8040    -4.2633    -1.0792 C.ar    
  21 C21           -1.7881    -2.8841    -1.0784 C.ar    
  22 O22            1.2922    -2.0347    -0.0261 O.3     
  23 C23            3.7333    -0.5664    -0.0436 C.ar    
  24 C24            4.5732    -0.4103    -1.1459 C.ar    
  25 C25            5.8113    -1.0209    -1.1597 C.ar    
  26 C26            6.2197    -1.7908    -0.0763 C.ar    
  27 C27            5.3852    -1.9474     1.0206 C.ar    
  28 C28            4.1491    -1.3344     1.0427 C.ar    
  29 O29            7.4392    -2.3917    -0.0922 O.3     
  30 F30            6.6263    -0.8708    -2.2267 F       
  31 Cl31           3.7515     2.4387    -0.0229 Cl      
  32 H32           -5.8057    -0.2359     0.3794 H       
  33 H33           -4.7709     0.0707     1.7944 H       
  34 H34           -5.6621     2.2068     0.3013 H       
  35 H35           -3.6008     3.2530    -0.2295 H       
  36 H36           -0.3190    -2.3844     1.9414 H       
  37 H37           -0.3686    -4.8431     1.9228 H       
  38 H38           -1.3147    -6.0448    -0.0041 H       
  39 H39           -2.2178    -4.7968    -1.9221 H       
  40 H40           -2.1890    -2.3376    -1.9192 H       
  41 H41            1.2981    -2.4220    -0.9121 H       
  42 H42            4.2555     0.1872    -1.9876 H       
  43 H43            5.7052    -2.5463     1.8604 H       
  44 H44            3.5024    -1.4532     1.8995 H       
  45 H45            8.1496    -1.8495     0.2771 H       
@<TRIPOS>BOND
   1    1    2 ar
   2    1    6 ar
   3    1    7 ar
   4    2    3 ar
   5    2    8 ar
   6    3    4 ar
   7    3   22 1
   8    4    5 ar
   9    4   23 1
  10    5    6 ar
  11    5   31 1
  12    7   14 ar
  13    8    9 ar
  14    8   16 1
  15    9   10 1
  16    9   14 ar
  17   10   11 1
  18   10   15 2
  19   11   12 1
  20   11   32 1
  21   11   33 1
  22   12   13 2
  23   12   34 1
  24   13   14 1
  25   13   35 1
  26   16   17 ar
  27   16   21 ar
  28   17   18 ar
  29   17   36 1
  30   18   19 ar
  31   18   37 1
  32   19   20 ar
  33   19   38 1
  34   20   21 ar
  35   20   39 1
  36   21   40 1
  37   22   41 1
  38   23   24 ar
  39   23   28 ar
  40   24   25 ar
  41   24   42 1
  42   25   26 ar
  43   25   30 1
  44   26   27 ar
  45   26   29 1
  46   27   28 ar
  47   27   43 1
  48   28   44 1
  49   29   45 1

#	End of record

