#	Name: ASD06590023
#	Creating user name:	WinNT
#	Creation time:	15. 06. 2019 21:06

#	Modifying user name:	WinNT
#	Modification time:	15. 06. 2019 21:06

#	Program:	/corina/corina34_cracker 3.40 0067  02.08.2006

@<TRIPOS>MOLECULE
ASD06590023
 402  409    0    0    0
SMALL
NO_CHARGES


@<TRIPOS>ATOM
   1 C1            -6.2772     8.1838   -33.3171 C.2     
   2 O2            -6.6122     7.0325   -33.4988 O.2     
   3 N3            -4.2584     7.6473   -34.5525 N.am    
   4 C4            -5.0859     8.7464   -34.0490 C.3     
   5 C5            -5.5661     9.6023   -35.2228 C.3     
   6 C6            -6.2952    10.8370   -34.6889 C.3     
   7 C7            -5.3081    11.7215   -33.9247 C.3     
   8 C8            -6.8865    11.6257   -35.8591 C.3     
   9 C9            -9.0857     9.6021   -31.4559 C.2     
  10 O10           -8.7387    10.7403   -31.6905 O.2     
  11 N11           -6.9735     8.9618   -32.4649 N.am    
  12 C12           -8.1921     8.4489   -31.8339 C.3     
  13 C13           -7.8218     7.6577   -30.5779 C.3     
  14 C14           -7.0307     6.4360   -30.9688 C.ar    
  15 C15           -5.6522     6.5040   -31.0522 C.ar    
  16 C16           -4.9248     5.3856   -31.4108 C.ar    
  17 C17           -5.5785     4.1935   -31.6869 C.ar    
  18 O18           -4.8652     3.0919   -32.0394 O.3     
  19 C19           -6.9617     4.1278   -31.6021 C.ar    
  20 C20           -7.6842     5.2476   -31.2380 C.ar    
  21 C21          -12.1424    10.0882   -29.4911 C.2     
  22 O22          -12.3204     8.9172   -29.2307 O.2     
  23 N23          -10.2703     9.3685   -30.8572 N.am    
  24 C24          -11.1872    10.4792   -30.5891 C.3     
  25 C25          -11.9759    10.8072   -31.8584 C.3     
  26 C26          -12.8348    12.0504   -31.6182 C.3     
  27 C27          -11.9284    13.2711   -31.4469 C.3     
  28 C28          -13.7628    12.2682   -32.8150 C.3     
  29 C29          -14.7041    11.7239   -27.4600 C.2     
  30 O30          -14.7393    12.6947   -28.1862 O.2     
  31 N31          -12.7989    11.0399   -28.7984 N.am    
  32 C32          -13.6510    10.6660   -27.6670 C.3     
  33 C33          -12.7966    10.5429   -26.4037 C.3     
  34 C34          -11.8241     9.4030   -26.5642 C.2     
  35 C35          -10.4864     9.4790   -26.4284 C.2     
  36 N36           -9.9932     8.2225   -26.6560 N.pl3   
  37 C37          -11.0475     7.4219   -26.9232 C.2     
  38 N38          -12.1395     8.1337   -26.8616 N.2     
  39 C39          -17.0903    12.5970   -24.8319 C.2     
  40 O40          -16.6101    11.8002   -24.0538 O.2     
  41 N41          -15.6068    11.5913   -26.4680 N.am    
  42 C42          -16.6305    12.6198   -26.2668 C.3     
  43 C43          -17.8202    12.3422   -27.1880 C.3     
  44 O44          -18.4402    11.1121   -26.8077 O.3     
  45 C45          -19.7762    14.1210   -22.8564 C.2     
  46 O46          -20.2806    14.7028   -23.7934 O.2     
  47 N47          -18.0350    13.4622   -24.4131 N.am    
  48 C48          -18.4034    13.5152   -22.9962 C.3     
  49 C49          -17.3882    14.3719   -22.2370 C.3     
  50 C50          -17.6928    14.3159   -20.7387 C.3     
  51 C51          -17.4630    12.8933   -20.2244 C.3     
  52 C52          -16.7699    15.2827   -19.9942 C.3     
  53 C53          -21.9228    15.1105   -20.1079 C.2     
  54 O54          -21.0031    15.0062   -19.3241 O.2     
  55 N55          -20.4434    14.0162   -21.6901 N.am    
  56 C56          -21.7519    14.6564   -21.5347 C.3     
  57 C57          -22.8544    13.6557   -21.8869 C.3     
  58 C58          -22.6472    12.3668   -21.0890 C.3     
  59 C59          -22.8766    12.6451   -19.6021 C.3     
  60 C60          -22.8003    13.3432   -23.3837 C.3     
  61 C61          -24.7658    15.9525   -17.9699 C.2     
  62 O62          -25.5702    15.6597   -18.8291 O.2     
  63 N63          -23.0975    15.6325   -19.7029 N.am    
  64 C64          -23.2948    15.9876   -18.2953 C.3     
  65 C65          -22.7501    17.3949   -18.0432 C.3     
  66 C66          -21.2574    17.4004   -18.2503 C.ar    
  67 C67          -20.7340    17.6723   -19.5005 C.ar    
  68 C68          -19.3648    17.6773   -19.6904 C.ar    
  69 C69          -18.5189    17.4109   -18.6301 C.ar    
  70 C70          -19.0423    17.1398   -17.3796 C.ar    
  71 C71          -20.4114    17.1391   -17.1887 C.ar    
  72 C72          -26.8951    17.1211   -15.2379 C.2     
  73 O73          -25.9877    17.7366   -14.7195 O.2     
  74 N74          -25.1875    16.2465   -16.7240 N.am    
  75 C75          -26.6176    16.2123   -16.4076 C.3     
  76 C76          -27.0269    14.7820   -16.0506 C.3     
  77 C77          -26.8623    13.8831   -17.2777 C.3     
  78 S78          -27.3477    12.1872   -16.8544 S.3     
  79 C79          -27.0879    11.2885   -18.4086 C.3     
  80 C80          -29.6688    17.6725   -12.9215 C.2     
  81 O81          -30.2730    16.7018   -13.3262 O.2     
  82 N82          -28.1516    17.2497   -14.7678 N.am    
  83 C83          -28.4214    18.1331   -13.6306 C.3     
  84 C84          -28.6193    19.5648   -14.1327 C.3     
  85 C85          -31.9479    19.0545   -10.4198 C.2     
  86 O86          -31.4294    20.1498   -10.4713 O.2     
  87 N87          -30.1129    18.3391   -11.8377 N.am    
  88 C88          -31.3256    17.8913   -11.1483 C.3     
  89 C89          -30.9659    16.7942   -10.1444 C.3     
  90 C90          -30.4576    15.5836   -10.8840 C.ar    
  91 C91          -29.1083    15.4558   -11.1559 C.ar    
  92 C92          -28.6420    14.3453   -11.8344 C.ar    
  93 C93          -29.5250    13.3623   -12.2405 C.ar    
  94 C94          -30.8742    13.4896   -11.9678 C.ar    
  95 C95          -31.3399    14.5981   -11.2855 C.ar    
  96 C96          -34.5099    19.4962    -7.8500 C.2     
  97 O97          -34.5849    18.3040    -7.6407 O.2     
  98 N98          -33.0805    18.8777    -9.7110 N.am    
  99 C99          -33.6854    20.0085    -9.0027 C.3     
 100 C100         -34.5828    20.7910    -9.9636 C.3     
 101 C101         -33.7391    21.4064   -11.0502 C.ar    
 102 C102         -33.4948    20.7052   -12.2162 C.ar    
 103 C103         -32.7210    21.2697   -13.2129 C.ar    
 104 C104         -32.1917    22.5355   -13.0437 C.ar    
 105 C105         -32.4368    23.2370   -11.8781 C.ar    
 106 C106         -33.2143    22.6743   -10.8832 C.ar    
 107 C107         -37.0360    20.8705    -5.5932 C.2     
 108 O108         -37.1210    21.9016    -6.2260 O.2     
 109 N109         -35.1640    20.3630    -7.0517 N.am    
 110 C110         -35.9656    19.8650    -5.9311 C.3     
 111 C111         -35.0635    19.6518    -4.7138 C.3     
 112 O112         -34.5458    20.9106    -4.2783 O.3     
 113 C113         -39.3466    21.4365    -2.8176 C.2     
 114 O114         -38.8194    20.5861    -2.1321 O.2     
 115 N115         -37.8989    20.6240    -4.5876 N.am    
 116 C116         -38.9395    21.6015    -4.2591 C.3     
 117 C117         -40.1544    21.3757    -5.1612 C.3     
 118 C118         -39.7716    21.6648    -6.6141 C.3     
 119 C119         -40.9683    21.4424    -7.5027 C.2     
 120 O120         -42.0195    21.0889    -7.0231 O.2     
 121 O121         -40.8664    21.6370    -8.8268 O.3     
 122 C122         -42.0972    22.5855    -0.7017 C.2     
 123 O123         -42.7078    23.0397    -1.6461 O.2     
 124 N124         -40.2965    22.2339    -2.2901 N.am    
 125 C125         -40.6923    22.0735    -0.8887 C.3     
 126 C126         -39.7371    22.8671     0.0050 C.3     
 127 C127         -38.3328    22.2673    -0.0902 C.3     
 128 C128         -37.3776    23.0609     0.8036 C.3     
 129 C129         -35.9733    22.4611     0.7084 C.3     
 130 N130         -35.0562    23.2230     1.5665 N.3     
 131 C131         -44.2382    23.4496     2.1324 C.2     
 132 O132         -43.3276    23.3391     2.9258 O.2     
 133 N133         -42.6752    22.5388     0.5149 N.am    
 134 C134         -44.0410    23.0365     0.6966 C.3     
 135 C135         -45.0380    21.9313     0.3424 C.3     
 136 C136         -44.9231    21.5989    -1.1466 C.3     
 137 C137         -45.9201    20.4937    -1.5009 C.3     
 138 C138         -45.8052    20.1613    -2.9899 C.3     
 139 N139         -46.7624    19.1002    -3.3301 N.3     
 140 C140         -47.0823    24.2650     4.2794 C.2     
 141 O141         -47.8864    23.9087     3.4443 O.2     
 142 N142         -45.4266    23.9418     2.5349 N.am    
 143 C143         -45.6183    24.3434     3.9307 C.3     
 144 C144         -45.1250    25.7792     4.1207 C.3     
 145 C145         -43.6366    25.8334     3.8910 C.ar    
 146 C146         -43.1423    26.0766     2.6228 C.ar    
 147 C147         -41.7783    26.1264     2.4096 C.ar    
 148 C148         -40.9043    25.9326     3.4694 C.ar    
 149 O149         -39.5620    25.9816     3.2623 O.3     
 150 C150         -41.4027    25.6893     4.7410 C.ar    
 151 C151         -42.7676    25.6456     4.9500 C.ar    
 152 C152         -49.2757    25.4162     6.9504 C.2     
 153 O153         -48.4089    25.9628     7.5990 O.2     
 154 N154         -47.4981    24.5907     5.5194 N.am    
 155 C155         -48.9035    24.4104     5.8917 C.3     
 156 C156         -49.1090    22.9958     6.4373 C.3     
 157 C157         -50.6015    22.7496     6.6668 C.3     
 158 C158         -51.3307    22.7471     5.3218 C.3     
 159 C159         -50.7954    21.3967     7.3546 C.3     
 160 C160         -51.0478    25.7999     9.5543 C.2     
 161 O161         -50.8371    24.6056     9.5413 O.2     
 162 N162         -50.5719    25.7082     7.1765 N.am    
 163 C163         -50.9405    26.5979     8.2804 C.3     
 164 C164         -52.2875    27.2568     7.9764 C.3     
 165 C165         -52.1483    28.1522     6.7722 C.2     
 166 C166         -51.9072    29.4727     6.7827 C.2     
 167 N167         -51.8461    29.9460     5.5003 N.pl3   
 168 C168         -52.0515    28.9154     4.6106 C.ar    
 169 C169         -52.0914    28.8425     3.2223 C.ar    
 170 C170         -52.3236    27.6316     2.6070 C.ar    
 171 C171         -52.5186    26.4815     3.3589 C.ar    
 172 C172         -52.4840    26.5304     4.7242 C.ar    
 173 C173         -52.2440    27.7454     5.3682 C.ar    
 174 C174         -51.8615    26.5529    13.0820 C.2     
 175 O175         -52.0276    27.7322    12.8779 O.2     
 176 N176         -51.3779    26.4134    10.7080 N.am    
 177 C177         -51.4822    25.6377    11.9464 C.3     
 178 O178         -52.0147    26.0580    14.3203 O.3     
 179 C179          -2.9311     7.8203   -34.7094 C.2     
 180 O180          -2.4353     8.9110   -34.5212 O.2     
 181 C181          14.2879     1.6411   -38.7732 C.3     
 182 C182          13.4065     2.8207   -38.3574 C.3     
 183 C183          11.9520     2.3579   -38.2511 C.3     
 184 C184          11.0707     3.5374   -37.8354 C.3     
 185 C185           9.6162     3.0747   -37.7291 C.3     
 186 C186           8.7348     4.2542   -37.3134 C.3     
 187 C187           7.2804     3.7915   -37.2071 C.3     
 188 C188           6.3990     4.9710   -36.7913 C.3     
 189 C189           4.9445     4.5082   -36.6850 C.3     
 190 C190           4.0632     5.6877   -36.2693 C.3     
 191 C191           2.6087     5.2250   -36.1630 C.3     
 192 C192           1.7273     6.4045   -35.7473 C.3     
 193 C193           0.2729     5.9418   -35.6410 C.3     
 194 C194          -0.6085     7.1213   -35.2252 C.3     
 195 C195          -2.0630     6.6586   -35.1189 C.3     
 196 H196          -4.6658     6.7950   -34.7728 H       
 197 H197          -4.4980     9.3612   -33.3676 H       
 198 H198          -4.7088     9.9159   -35.8184 H       
 199 H199          -6.2461     9.0190   -35.8436 H       
 200 H200          -7.0966    10.5245   -34.0195 H       
 201 H201          -4.5441    12.0891   -34.6097 H       
 202 H202          -5.8404    12.5660   -33.4871 H       
 203 H203          -4.8365    11.1395   -33.1329 H       
 204 H204          -7.5898    10.9955   -36.4035 H       
 205 H205          -7.4060    12.5053   -35.4788 H       
 206 H206          -6.0851    11.9382   -36.5285 H       
 207 H207          -6.6678     9.8614   -32.2694 H       
 208 H208          -8.7163     7.7969   -32.5327 H       
 209 H209          -7.2211     8.2837   -29.9180 H       
 210 H210          -8.7308     7.3515   -30.0601 H       
 211 H211          -5.1438     7.4322   -30.8371 H       
 212 H212          -3.8482     5.4394   -31.4765 H       
 213 H213          -4.5959     2.5416   -31.2912 H       
 214 H214          -7.4730     3.2011   -31.8169 H       
 215 H215          -8.7606     5.1959   -31.1675 H       
 216 H216         -10.5159     8.4649   -30.6038 H       
 217 H217         -10.6165    11.3548   -30.2795 H       
 218 H218         -11.2828    10.9973   -32.6779 H       
 219 H219         -12.6190     9.9652   -32.1143 H       
 220 H220         -13.4312    11.9113   -30.7165 H       
 221 H221         -12.5352    14.1425   -31.2004 H       
 222 H222         -11.2164    13.0850   -30.6428 H       
 223 H223         -11.3880    13.4556   -32.3753 H       
 224 H224         -14.4085    11.3986   -32.9370 H       
 225 H225         -14.3746    13.1539   -32.6438 H       
 226 H226         -13.1664    12.4073   -33.7166 H       
 227 H227         -12.7071    11.9725   -29.0490 H       
 228 H228         -14.1321     9.7102   -27.8747 H       
 229 H229         -12.2464    11.4704   -26.2455 H       
 230 H230         -13.4416    10.3522   -25.5460 H       
 231 H231          -9.9129    10.3616   -26.1867 H       
 232 H232          -9.0607     7.9568   -26.6303 H       
 233 H233         -10.9957     6.3666   -27.1467 H       
 234 H234         -15.5786    10.8149   -25.8873 H       
 235 H235         -16.2121    13.5992   -26.4988 H       
 236 H236         -18.5423    13.1543   -27.1036 H       
 237 H237         -17.4728    12.2705   -28.2186 H       
 238 H238         -19.2040    10.8725   -27.3503 H       
 239 H239         -18.4711    14.0497   -25.0499 H       
 240 H240         -18.4079    12.5062   -22.5839 H       
 241 H241         -16.3833    13.9903   -22.4180 H       
 242 H242         -17.4528    15.4036   -22.5826 H       
 243 H243         -18.7310    14.6006   -20.5681 H       
 244 H244         -17.5800    12.8754   -19.1408 H       
 245 H245         -18.1899    12.2206   -20.6795 H       
 246 H246         -16.4554    12.5706   -20.4864 H       
 247 H247         -16.9336    16.2961   -20.3606 H       
 248 H248         -16.9869    15.2428   -18.9267 H       
 249 H249         -15.7317    14.9980   -20.1647 H       
 250 H250         -20.0573    13.5169   -20.9536 H       
 251 H251         -21.8165    15.5173   -22.2001 H       
 252 H252         -23.8260    14.0837   -21.6399 H       
 253 H253         -23.3540    11.6105   -21.4304 H       
 254 H254         -21.6293    12.0067   -21.2384 H       
 255 H255         -22.9282    11.7011   -19.0595 H       
 256 H256         -22.0525    13.2431   -19.2130 H       
 257 H257         -23.8124    13.1892   -19.4744 H       
 258 H258         -21.8692    12.8252   -23.6133 H       
 259 H259         -23.6449    12.7091   -23.6532 H       
 260 H260         -22.8484    14.2728   -23.9509 H       
 261 H261         -23.8123    15.7731   -20.3434 H       
 262 H262         -22.7657    15.2745   -17.6631 H       
 263 H263         -23.2158    18.0945   -18.7373 H       
 264 H264         -22.9760    17.6940   -17.0197 H       
 265 H265         -21.3949    17.8805   -20.3289 H       
 266 H266         -18.9559    17.8891   -20.6674 H       
 267 H267         -17.4492    17.4141   -18.7786 H       
 268 H268         -18.3814    16.9313   -16.5513 H       
 269 H269         -20.8202    16.9310   -16.2110 H       
 270 H270         -24.5442    16.4806   -16.0368 H       
 271 H271         -27.1892    16.5487   -17.2726 H       
 272 H272         -26.3942    14.4138   -15.2430 H       
 273 H273         -28.0686    14.7716   -15.7297 H       
 274 H274         -27.4950    14.2512   -18.0853 H       
 275 H275         -25.8207    13.8935   -17.5986 H       
 276 H276         -27.3521    10.2401   -18.2705 H       
 277 H277         -27.7150    11.7216   -19.1879 H       
 278 H278         -26.0407    11.3639   -18.7012 H       
 279 H279         -28.8773    16.7574   -15.1823 H       
 280 H280         -27.5788    18.1036   -12.9397 H       
 281 H281         -28.8200    20.2220   -13.2867 H       
 282 H282         -27.7171    19.8980   -14.6456 H       
 283 H283         -29.4619    19.5943   -14.8236 H       
 284 H284         -29.6297    19.1154   -11.5140 H       
 285 H285         -32.0340    17.4984   -11.8776 H       
 286 H286         -30.1918    17.1591    -9.4693 H       
 287 H287         -31.8514    16.5234    -9.5693 H       
 288 H288         -28.4184    16.2238   -10.8386 H       
 289 H289         -27.5879    14.2459   -12.0474 H       
 290 H290         -29.1609    12.4951   -12.7712 H       
 291 H291         -31.5641    12.7218   -12.2854 H       
 292 H292         -32.3935    14.6957   -11.0692 H       
 293 H293         -33.4951    18.0018    -9.6698 H       
 294 H294         -32.8998    20.6629    -8.6249 H       
 295 H295         -35.3135    20.1161   -10.4093 H       
 296 H296         -35.1015    21.5783    -9.4166 H       
 297 H297         -33.9083    19.7163   -12.3483 H       
 298 H298         -32.5295    20.7216   -14.1236 H       
 299 H299         -31.5865    22.9762   -13.8221 H       
 300 H300         -32.0231    24.2258   -11.7458 H       
 301 H301         -33.4088    23.2238    -9.9741 H       
 302 H302         -35.1041    21.3166    -7.2191 H       
 303 H303         -36.4304    18.9190    -6.2090 H       
 304 H304         -35.6413    19.1983    -3.9084 H       
 305 H305         -34.2381    18.9934    -4.9842 H       
 306 H306         -33.9640    20.8513    -3.5082 H       
 307 H307         -37.8310    19.7993    -4.0815 H       
 308 H308         -38.5537    22.6090    -4.4147 H       
 309 H309         -40.4861    20.3412    -5.0719 H       
 310 H310         -40.9610    22.0433    -4.8583 H       
 311 H311         -39.4400    22.6993    -6.7035 H       
 312 H312         -38.9650    20.9972    -6.9171 H       
 313 H313         -41.6609    21.4817    -9.3558 H       
 314 H314         -40.7181    22.9141    -2.8383 H       
 315 H315         -40.6510    21.0185    -0.6180 H       
 316 H316         -39.7114    23.9062    -0.3231 H       
 317 H317         -40.0828    22.8207     1.0377 H       
 318 H318         -38.3585    21.2282     0.2380 H       
 319 H319         -37.9871    22.3138    -1.1228 H       
 320 H320         -37.3519    24.1000     0.4754 H       
 321 H321         -37.7233    23.0144     1.8363 H       
 322 H322         -35.9990    21.4220     1.0366 H       
 323 H323         -35.6276    22.5075    -0.3243 H       
 324 H324         -34.1213    22.8462     1.5210 H       
 325 H325         -35.0635    24.2024     1.3237 H       
 326 H326         -42.1869    22.1755     1.2702 H       
 327 H327         -44.2043    23.8954     0.0457 H       
 328 H328         -44.8179    21.0410     0.9314 H       
 329 H329         -46.0502    22.2710     0.5618 H       
 330 H330         -45.1432    22.4892    -1.7357 H       
 331 H331         -43.9109    21.2592    -1.3660 H       
 332 H332         -45.6999    19.6034    -0.9119 H       
 333 H333         -46.9322    20.8335    -1.2815 H       
 334 H334         -46.0253    21.0517    -3.5790 H       
 335 H335         -44.7930    19.8216    -3.2093 H       
 336 H336         -46.7060    18.8625    -4.3090 H       
 337 H337         -46.6201    18.2859    -2.7515 H       
 338 H338         -46.1549    24.0302     1.9004 H       
 339 H339         -45.0535    23.6760     4.5816 H       
 340 H340         -45.6267    26.4331     3.4074 H       
 341 H341         -45.3483    26.1088     5.1353 H       
 342 H342         -43.8232    26.2273     1.7981 H       
 343 H343         -41.3927    26.3156     1.4187 H       
 344 H344         -39.1799    26.8638     3.3663 H       
 345 H345         -40.7243    25.5378     5.5676 H       
 346 H346         -43.1562    25.4606     5.9405 H       
 347 H347         -46.8668    24.9446     6.1652 H       
 348 H348         -49.5334    24.5564     5.0142 H       
 349 H349         -48.7273    22.2703     5.7190 H       
 350 H350         -48.5738    22.8890     7.3809 H       
 351 H351         -51.0072    23.5398     7.2986 H       
 352 H352         -50.9807    21.9082     4.7202 H       
 353 H353         -52.4034    22.6509     5.4902 H       
 354 H354         -51.1277    23.6805     4.7967 H       
 355 H355         -50.2759    21.3985     8.3128 H       
 356 H356         -51.8587    21.2213     7.5181 H       
 357 H357         -50.3897    20.6065     6.7228 H       
 358 H358         -51.2606    25.3293     6.6082 H       
 359 H359         -50.1776    27.3676     8.3970 H       
 360 H360         -53.0310    26.4864     7.7723 H       
 361 H361         -52.6042    27.8491     8.8349 H       
 362 H362         -51.7807    30.0727     7.6717 H       
 363 H363         -51.6824    30.8700     5.2546 H       
 364 H364         -51.9413    29.7320     2.6285 H       
 365 H365         -52.3546    27.5771     1.5288 H       
 366 H366         -52.6995    25.5403     2.8610 H       
 367 H367         -52.6370    25.6314     5.3027 H       
 368 H368         -51.5465    27.3686    10.7184 H       
 369 H369         -50.5226    25.1683    12.1630 H       
 370 H370         -52.2452    24.8680    11.8298 H       
 371 H371         -52.2584    26.6838    15.0161 H       
 372 H372          14.2119     0.8501   -38.0271 H       
 373 H373          13.9556     1.2622   -39.7397 H       
 374 H374          15.3241     1.9708   -38.8489 H       
 375 H375          13.7388     3.1996   -37.3909 H       
 376 H376          13.4825     3.6117   -39.1035 H       
 377 H377          11.6198     1.9790   -39.2176 H       
 378 H378          11.8760     1.5669   -37.5051 H       
 379 H379          11.4029     3.9163   -36.8689 H       
 380 H380          11.1467     4.3285   -38.5814 H       
 381 H381           9.2839     2.6958   -38.6956 H       
 382 H382           9.5402     2.2836   -36.9831 H       
 383 H383           9.0671     4.6331   -36.3469 H       
 384 H384           8.8108     5.0452   -38.0594 H       
 385 H385           6.9481     3.4125   -38.1736 H       
 386 H386           7.2044     3.0004   -36.4610 H       
 387 H387           6.7313     5.3499   -35.8248 H       
 388 H388           6.4750     5.7620   -37.5374 H       
 389 H389           4.6123     4.1293   -37.6515 H       
 390 H390           4.8685     3.7172   -35.9390 H       
 391 H391           4.3954     6.0667   -35.3028 H       
 392 H392           4.1392     6.4788   -37.0153 H       
 393 H393           2.2764     4.8461   -37.1295 H       
 394 H394           2.5327     4.4340   -35.4170 H       
 395 H395           2.0596     6.7834   -34.7808 H       
 396 H396           1.8033     7.1956   -36.4933 H       
 397 H397          -0.0594     5.5629   -36.6075 H       
 398 H398           0.1969     5.1507   -34.8949 H       
 399 H399          -0.2762     7.5002   -34.2587 H       
 400 H400          -0.5325     7.9123   -35.9713 H       
 401 H401          -2.1390     5.8675   -34.3729 H       
 402 H402          -2.3952     6.2796   -36.0854 H       
@<TRIPOS>BOND
   1    1    2 2
   2    1    4 1
   3    1   11 am
   4    3  179 am
   5    3    4 1
   6    3  196 1
   7    4    5 1
   8    4  197 1
   9    5    6 1
  10    5  198 1
  11    5  199 1
  12    6    7 1
  13    6    8 1
  14    6  200 1
  15    7  201 1
  16    7  202 1
  17    7  203 1
  18    8  204 1
  19    8  205 1
  20    8  206 1
  21    9   10 2
  22    9   12 1
  23    9   23 am
  24   11   12 1
  25   11  207 1
  26   12   13 1
  27   12  208 1
  28   13   14 1
  29   13  209 1
  30   13  210 1
  31   14   15 ar
  32   14   20 ar
  33   15   16 ar
  34   15  211 1
  35   16   17 ar
  36   16  212 1
  37   17   18 1
  38   17   19 ar
  39   18  213 1
  40   19   20 ar
  41   19  214 1
  42   20  215 1
  43   21   22 2
  44   21   24 1
  45   21   31 am
  46   23   24 1
  47   23  216 1
  48   24   25 1
  49   24  217 1
  50   25   26 1
  51   25  218 1
  52   25  219 1
  53   26   27 1
  54   26   28 1
  55   26  220 1
  56   27  221 1
  57   27  222 1
  58   27  223 1
  59   28  224 1
  60   28  225 1
  61   28  226 1
  62   29   30 2
  63   29   32 1
  64   29   41 am
  65   31   32 1
  66   31  227 1
  67   32   33 1
  68   32  228 1
  69   33   34 1
  70   33  229 1
  71   33  230 1
  72   34   35 2
  73   34   38 1
  74   35   36 1
  75   35  231 1
  76   36   37 1
  77   36  232 1
  78   37   38 2
  79   37  233 1
  80   39   40 2
  81   39   42 1
  82   39   47 am
  83   41   42 1
  84   41  234 1
  85   42   43 1
  86   42  235 1
  87   43   44 1
  88   43  236 1
  89   43  237 1
  90   44  238 1
  91   45   46 2
  92   45   48 1
  93   45   55 am
  94   47   48 1
  95   47  239 1
  96   48   49 1
  97   48  240 1
  98   49   50 1
  99   49  241 1
 100   49  242 1
 101   50   51 1
 102   50   52 1
 103   50  243 1
 104   51  244 1
 105   51  245 1
 106   51  246 1
 107   52  247 1
 108   52  248 1
 109   52  249 1
 110   53   54 2
 111   53   56 1
 112   53   63 am
 113   55   56 1
 114   55  250 1
 115   56   57 1
 116   56  251 1
 117   57   58 1
 118   57   60 1
 119   57  252 1
 120   58   59 1
 121   58  253 1
 122   58  254 1
 123   59  255 1
 124   59  256 1
 125   59  257 1
 126   60  258 1
 127   60  259 1
 128   60  260 1
 129   61   62 2
 130   61   64 1
 131   61   74 am
 132   63   64 1
 133   63  261 1
 134   64   65 1
 135   64  262 1
 136   65   66 1
 137   65  263 1
 138   65  264 1
 139   66   67 ar
 140   66   71 ar
 141   67   68 ar
 142   67  265 1
 143   68   69 ar
 144   68  266 1
 145   69   70 ar
 146   69  267 1
 147   70   71 ar
 148   70  268 1
 149   71  269 1
 150   72   73 2
 151   72   75 1
 152   72   82 am
 153   74   75 1
 154   74  270 1
 155   75   76 1
 156   75  271 1
 157   76   77 1
 158   76  272 1
 159   76  273 1
 160   77   78 1
 161   77  274 1
 162   77  275 1
 163   78   79 1
 164   79  276 1
 165   79  277 1
 166   79  278 1
 167   80   81 2
 168   80   83 1
 169   80   87 am
 170   82   83 1
 171   82  279 1
 172   83   84 1
 173   83  280 1
 174   84  281 1
 175   84  282 1
 176   84  283 1
 177   85   86 2
 178   85   88 1
 179   85   98 am
 180   87   88 1
 181   87  284 1
 182   88   89 1
 183   88  285 1
 184   89   90 1
 185   89  286 1
 186   89  287 1
 187   90   91 ar
 188   90   95 ar
 189   91   92 ar
 190   91  288 1
 191   92   93 ar
 192   92  289 1
 193   93   94 ar
 194   93  290 1
 195   94   95 ar
 196   94  291 1
 197   95  292 1
 198   96   97 2
 199   96   99 1
 200   96  109 am
 201   98   99 1
 202   98  293 1
 203   99  100 1
 204   99  294 1
 205  100  101 1
 206  100  295 1
 207  100  296 1
 208  101  102 ar
 209  101  106 ar
 210  102  103 ar
 211  102  297 1
 212  103  104 ar
 213  103  298 1
 214  104  105 ar
 215  104  299 1
 216  105  106 ar
 217  105  300 1
 218  106  301 1
 219  107  108 2
 220  107  110 1
 221  107  115 am
 222  109  110 1
 223  109  302 1
 224  110  111 1
 225  110  303 1
 226  111  112 1
 227  111  304 1
 228  111  305 1
 229  112  306 1
 230  113  114 2
 231  113  116 1
 232  113  124 am
 233  115  116 1
 234  115  307 1
 235  116  117 1
 236  116  308 1
 237  117  118 1
 238  117  309 1
 239  117  310 1
 240  118  119 1
 241  118  311 1
 242  118  312 1
 243  119  120 2
 244  119  121 1
 245  121  313 1
 246  122  123 2
 247  122  125 1
 248  122  133 am
 249  124  125 1
 250  124  314 1
 251  125  126 1
 252  125  315 1
 253  126  127 1
 254  126  316 1
 255  126  317 1
 256  127  128 1
 257  127  318 1
 258  127  319 1
 259  128  129 1
 260  128  320 1
 261  128  321 1
 262  129  130 1
 263  129  322 1
 264  129  323 1
 265  130  324 1
 266  130  325 1
 267  131  132 2
 268  131  134 1
 269  131  142 am
 270  133  134 1
 271  133  326 1
 272  134  135 1
 273  134  327 1
 274  135  136 1
 275  135  328 1
 276  135  329 1
 277  136  137 1
 278  136  330 1
 279  136  331 1
 280  137  138 1
 281  137  332 1
 282  137  333 1
 283  138  139 1
 284  138  334 1
 285  138  335 1
 286  139  336 1
 287  139  337 1
 288  140  141 2
 289  140  143 1
 290  140  154 am
 291  142  143 1
 292  142  338 1
 293  143  144 1
 294  143  339 1
 295  144  145 1
 296  144  340 1
 297  144  341 1
 298  145  146 ar
 299  145  151 ar
 300  146  147 ar
 301  146  342 1
 302  147  148 ar
 303  147  343 1
 304  148  149 1
 305  148  150 ar
 306  149  344 1
 307  150  151 ar
 308  150  345 1
 309  151  346 1
 310  152  153 2
 311  152  155 1
 312  152  162 am
 313  154  155 1
 314  154  347 1
 315  155  156 1
 316  155  348 1
 317  156  157 1
 318  156  349 1
 319  156  350 1
 320  157  158 1
 321  157  159 1
 322  157  351 1
 323  158  352 1
 324  158  353 1
 325  158  354 1
 326  159  355 1
 327  159  356 1
 328  159  357 1
 329  160  161 2
 330  160  163 1
 331  160  176 am
 332  162  163 1
 333  162  358 1
 334  163  164 1
 335  163  359 1
 336  164  165 1
 337  164  360 1
 338  164  361 1
 339  165  166 2
 340  165  173 1
 341  166  167 1
 342  166  362 1
 343  167  168 1
 344  167  363 1
 345  168  169 ar
 346  168  173 ar
 347  169  170 ar
 348  169  364 1
 349  170  171 ar
 350  170  365 1
 351  171  172 ar
 352  171  366 1
 353  172  173 ar
 354  172  367 1
 355  174  175 2
 356  174  177 1
 357  174  178 1
 358  176  177 1
 359  176  368 1
 360  177  369 1
 361  177  370 1
 362  178  371 1
 363  179  180 2
 364  179  195 1
 365  181  182 1
 366  181  372 1
 367  181  373 1
 368  181  374 1
 369  182  183 1
 370  182  375 1
 371  182  376 1
 372  183  184 1
 373  183  377 1
 374  183  378 1
 375  184  185 1
 376  184  379 1
 377  184  380 1
 378  185  186 1
 379  185  381 1
 380  185  382 1
 381  186  187 1
 382  186  383 1
 383  186  384 1
 384  187  188 1
 385  187  385 1
 386  187  386 1
 387  188  189 1
 388  188  387 1
 389  188  388 1
 390  189  190 1
 391  189  389 1
 392  189  390 1
 393  190  191 1
 394  190  391 1
 395  190  392 1
 396  191  192 1
 397  191  393 1
 398  191  394 1
 399  192  193 1
 400  192  395 1
 401  192  396 1
 402  193  194 1
 403  193  397 1
 404  193  398 1
 405  194  195 1
 406  194  399 1
 407  194  400 1
 408  195  401 1
 409  195  402 1

#	End of record

