#	Name: ASD01870625
#	Creating user name:	WinNT
#	Creation time:	15. 06. 2019 19:39

#	Modifying user name:	WinNT
#	Modification time:	15. 06. 2019 19:39

#	Program:	/corina/corina34_cracker 3.40 0067  02.08.2006

@<TRIPOS>MOLECULE
ASD01870625
  43   46    0    0    0
SMALL
NO_CHARGES


@<TRIPOS>ATOM
   1 C1             0.0315     1.3448     0.1099 C.ar    
   2 C2             0.0598    -0.0409     0.1329 C.ar    
   3 C3             1.2653    -0.7171     0.1451 C.ar    
   4 C4             2.4628    -0.0190     0.1340 C.ar    
   5 C5             2.4501     1.3663     0.1105 C.ar    
   6 C6             1.2206     2.0560     0.0985 C.ar    
   7 C7             3.4983     2.4083     0.0935 C.2     
   8 N8             2.9033     3.6147     0.0727 N.am    
   9 C9             1.5636     3.4936     0.0748 C.2     
  10 C10            3.5898     4.8381     0.0528 C.ar    
  11 C11            2.8808     6.0314     0.0322 C.ar    
  12 C12            3.5560     7.2354     0.0122 C.ar    
  13 C13            4.9446     7.2528     0.0132 C.ar    
  14 C14            5.6538     6.0585     0.0343 C.ar    
  15 C15            4.9783     4.8552     0.0596 C.ar    
  16 O16            0.7688     4.4118     0.0589 O.2     
  17 O17            4.6963     2.2088     0.0980 O.2     
  18 N18            5.6294     8.4733    -0.0076 N.am    
  19 C19            6.8775     8.5372    -0.5123 C.2     
  20 C20            7.5618     9.8300    -0.6140 C.2     
  21 O21            7.4366     7.5219    -0.8836 O.2     
  22 C22            8.8201    10.0356    -1.1032 C.2     
  23 C23            9.0674    11.4144    -1.0141 C.2     
  24 C24            7.9634    11.9828    -0.4812 C.2     
  25 O25            7.0565    11.0256    -0.2462 O.3     
  26 C26            9.7611     8.9855    -1.6352 C.3     
  27 C27            2.7862     8.5308    -0.0113 C.3     
  28 H28           -0.9133     1.8678     0.0963 H       
  29 H29           -0.8666    -0.5961     0.1417 H       
  30 H30            1.2743    -1.7969     0.1637 H       
  31 H31            3.4017    -0.5526     0.1439 H       
  32 H32            1.8008     6.0178     0.0314 H       
  33 H33            6.7338     6.0717     0.0348 H       
  34 H34            5.5296     3.9267     0.0801 H       
  35 H35            5.2058     9.2731     0.3413 H       
  36 H36            9.9706    11.9249    -1.3143 H       
  37 H37            7.8323    13.0361    -0.2815 H       
  38 H38            9.6002     8.8624    -2.7062 H       
  39 H39           10.7905     9.2956    -1.4557 H       
  40 H40            9.5732     8.0389    -1.1284 H       
  41 H41            2.5993     8.8609     1.0106 H       
  42 H42            3.3664     9.2888    -0.5376 H       
  43 H43            1.8362     8.3797    -0.5238 H       
@<TRIPOS>BOND
   1    1    2 ar
   2    1    6 ar
   3    1   28 1
   4    2    3 ar
   5    2   29 1
   6    3    4 ar
   7    3   30 1
   8    4    5 ar
   9    4   31 1
  10    5    7 1
  11    5    6 ar
  12    6    9 1
  13    7    8 am
  14    7   17 2
  15    8    9 am
  16    8   10 1
  17    9   16 2
  18   10   11 ar
  19   10   15 ar
  20   11   12 ar
  21   11   32 1
  22   12   13 ar
  23   12   27 1
  24   13   14 ar
  25   13   18 1
  26   14   15 ar
  27   14   33 1
  28   15   34 1
  29   18   19 am
  30   18   35 1
  31   19   20 1
  32   19   21 2
  33   20   22 2
  34   20   25 1
  35   22   23 1
  36   22   26 1
  37   23   24 2
  38   23   36 1
  39   24   25 1
  40   24   37 1
  41   26   38 1
  42   26   39 1
  43   26   40 1
  44   27   41 1
  45   27   42 1
  46   27   43 1

#	End of record

