#	Name: ASD01882362
#	Creating user name:	WinNT
#	Creation time:	15. 06. 2019 19:44

#	Modifying user name:	WinNT
#	Modification time:	15. 06. 2019 19:44

#	Program:	/corina/corina34_cracker 3.40 0067  02.08.2006

@<TRIPOS>MOLECULE
ASD01882362
  50   55    0    0    0
SMALL
NO_CHARGES


@<TRIPOS>ATOM
   1 C1            -0.0226     1.4363     0.1761 C.3     
   2 O2             0.0028    -0.0023    -0.0215 O.3     
   3 C3             1.2787    -0.4240     0.0062 C.2     
   4 C4             2.1870     0.7163     0.2268 C.ar    
   5 C5             3.5758     0.8100     0.3342 C.ar    
   6 C6             4.1657     2.0388     0.5461 C.ar    
   7 C7             3.3876     3.1783     0.6531 C.ar    
   8 C8             2.0094     3.0935     0.5473 C.ar    
   9 C9             1.4105     1.8736     0.3352 C.ar    
  10 N10           -2.8161     1.8321     0.0369 N.pl3   
  11 C11           -2.0845     1.6250    -1.2203 C.3     
  12 C12           -0.6459     2.1208    -1.0407 C.3     
  13 C13           -0.8176     1.7783     1.4363 C.3     
  14 C14           -2.2578     1.2800     1.2788 C.3     
  15 O15            1.6324    -1.5780    -0.1302 O.2     
  16 C16           -6.3086     2.7862    -0.5899 C.2     
  17 C17           -5.1079     2.0556    -0.6199 C.2     
  18 C18           -4.0166     2.5383     0.0511 C.2     
  19 C19           -4.1160     3.7562     0.7578 C.2     
  20 C20           -5.2768     4.4403     0.7729 C.2     
  21 N21           -6.3707     3.9679     0.1078 N.pl3   
  22 N22           -8.2826     3.5658    -0.7998 N.2     
  23 N23           -7.5044     2.5945    -1.1262 N.2     
  24 C24           -7.6448     4.4277    -0.0522 C.2     
  25 C25           -8.2127     5.6986     0.5252 C.3     
  26 C26           -7.9968     6.8479    -0.4613 C.3     
  27 C27           -8.6093     8.2052    -0.1097 C.3     
  28 C28           -7.0958     8.0015    -0.0159 C.3     
  29 Cl29          -5.0105     0.5599    -1.4958 Cl      
  30 H30            4.1865    -0.0769     0.2520 H       
  31 H31            5.2400     2.1120     0.6293 H       
  32 H32            3.8566     4.1367     0.8200 H       
  33 H33            1.4052     3.9847     0.6312 H       
  34 H34           -2.0769     0.5636    -1.4682 H       
  35 H35           -2.5671     2.1859    -2.0207 H       
  36 H36           -0.6495     3.2001    -0.8887 H       
  37 H37           -0.0645     1.8803    -1.9308 H       
  38 H38           -0.3579     1.2954     2.2985 H       
  39 H39           -0.8204     2.8584     1.5825 H       
  40 H40           -2.8548     1.6134     2.1276 H       
  41 H41           -2.2645     0.1911     1.2299 H       
  42 H42           -3.2581     4.1412     1.2891 H       
  43 H43           -5.3422     5.3711     1.3167 H       
  44 H44           -9.2799     5.5704     0.7059 H       
  45 H45           -7.7099     5.9271     1.4649 H       
  46 H46           -7.9700     6.5654    -1.5138 H       
  47 H47           -8.9850     8.8157    -0.9307 H       
  48 H48           -9.1660     8.2793     0.8245 H       
  49 H49           -6.6568     7.9415     0.9800 H       
  50 H50           -6.4758     8.4780    -0.7753 H       
@<TRIPOS>BOND
   1    1    2 1
   2    1    9 1
   3    1   12 1
   4    1   13 1
   5    2    3 1
   6    3    4 1
   7    3   15 2
   8    4    5 ar
   9    4    9 ar
  10    5    6 ar
  11    5   30 1
  12    6    7 ar
  13    6   31 1
  14    7    8 ar
  15    7   32 1
  16    8    9 ar
  17    8   33 1
  18   10   11 1
  19   10   14 1
  20   10   18 1
  21   11   12 1
  22   11   34 1
  23   11   35 1
  24   12   36 1
  25   12   37 1
  26   13   14 1
  27   13   38 1
  28   13   39 1
  29   14   40 1
  30   14   41 1
  31   16   17 1
  32   16   21 1
  33   16   23 2
  34   17   18 2
  35   17   29 1
  36   18   19 1
  37   19   20 2
  38   19   42 1
  39   20   21 1
  40   20   43 1
  41   21   24 1
  42   22   23 1
  43   22   24 2
  44   24   25 1
  45   25   26 1
  46   25   44 1
  47   25   45 1
  48   26   27 1
  49   26   28 1
  50   26   46 1
  51   27   28 1
  52   27   47 1
  53   27   48 1
  54   28   49 1
  55   28   50 1

#	End of record

