#	Name: ASD06610011
#	Creating user name:	WinNT
#	Creation time:	15. 06. 2019 21:07

#	Modifying user name:	WinNT
#	Modification time:	15. 06. 2019 21:07

#	Program:	/corina/corina34_cracker 3.40 0067  02.08.2006

@<TRIPOS>MOLECULE
ASD06610011
 332  333    0    0    0
SMALL
NO_CHARGES


@<TRIPOS>ATOM
   1 C1             0.1644     7.5609     0.6571 C.2     
   2 O2             0.4931     6.3935     0.6650 O.2     
   3 N3             2.3732     8.0136     1.5545 N.am    
   4 C4             1.1760     8.6307     0.9783 C.3     
   5 C5             1.5532     9.3771    -0.3029 C.3     
   6 C6             2.5585    10.4820     0.0277 C.3     
   7 O7             2.1388     8.4627    -1.2319 O.3     
   8 C8            -3.1444     7.5006    -0.8958 C.2     
   9 O9            -3.2076     8.7073    -0.9995 O.2     
  10 N10           -1.1043     7.9017     0.3556 N.am    
  11 C11           -2.0607     6.8720    -0.0582 C.3     
  12 C12           -2.6838     6.2270     1.1814 C.3     
  13 C13           -1.6119     5.4442     1.9424 C.3     
  14 C14           -3.2599     7.3165     2.0882 C.3     
  15 C15           -6.2988     6.3592    -2.3483 C.2     
  16 O16           -6.1998     5.2620    -1.8412 O.2     
  17 N17           -4.0432     6.7217    -1.5298 N.am    
  18 C18           -5.1520     7.3334    -2.2665 C.3     
  19 C19           -4.6879     7.6947    -3.6790 C.3     
  20 C20           -3.6249     8.7601    -3.6014 C.ar    
  21 C21           -2.2932     8.4020    -3.5051 C.ar    
  22 C22           -1.3181     9.3793    -3.4338 C.ar    
  23 C23           -1.6747    10.7146    -3.4594 C.ar    
  24 C24           -3.0063    11.0727    -3.5567 C.ar    
  25 C25           -3.9811    10.0954    -3.6323 C.ar    
  26 C26           -9.3974     6.0825    -4.2680 C.2     
  27 O27           -9.0998     7.0117    -4.9883 O.2     
  28 N28           -7.4345     6.7073    -2.9851 N.am    
  29 C29           -8.5494     5.7602    -3.0647 C.3     
  30 C30           -9.4005     5.8668    -1.7977 C.3     
  31 C31           -8.5750     5.4197    -0.5896 C.3     
  32 C32           -9.4261     5.5263     0.6773 C.3     
  33 N33           -8.6356     5.0981     1.8341 N.pl3   
  34 C34           -9.1944     5.1082     3.0902 C.2     
  35 N35          -10.4273     5.4988     3.2519 N.2     
  36 N36           -8.4526     4.7064     4.1758 N.pl3   
  37 C37          -12.7129     5.1460    -5.4901 C.2     
  38 O38          -12.9957     4.5800    -4.4555 O.2     
  39 N39          -10.4865     5.3380    -4.5438 N.am    
  40 C40          -11.3109     5.6513    -5.7137 C.3     
  41 C41          -10.7169     4.9764    -6.9517 C.3     
  42 O42          -10.7943     3.5572    -6.8038 O.3     
  43 C43          -15.6775     4.5820    -7.5531 C.2     
  44 O44          -15.0706     4.7933    -8.5816 O.2     
  45 N45          -13.6526     5.3232    -6.4399 N.am    
  46 C46          -15.0155     4.8320    -6.2226 C.3     
  47 C47          -15.8161     5.8772    -5.4430 C.3     
  48 O48          -15.9613     7.0559    -6.2377 O.3     
  49 C49          -19.0832     3.9794    -8.7369 C.2     
  50 O50          -19.5642     4.2284    -7.6518 O.2     
  51 N51          -16.9441     4.1235    -7.6001 N.am    
  52 C52          -17.5876     3.8805    -8.8935 C.3     
  53 C53          -17.2184     2.4819    -9.3920 C.3     
  54 C54          -15.7151     2.4199    -9.6699 C.3     
  55 C55          -15.3459     1.0213   -10.1684 C.3     
  56 N56          -13.9065     0.9619   -10.4344 N.pl3   
  57 C57          -13.3399    -0.2033   -10.8943 C.2     
  58 N58          -12.0593    -0.2562   -11.1310 N.2     
  59 N59          -14.1242    -1.3128   -11.1045 N.pl3   
  60 C60          -22.0128     3.0766   -10.7283 C.2     
  61 O61          -21.3436     2.4776   -11.5433 O.2     
  62 N62          -19.8863     3.7911    -9.8028 N.am    
  63 C63          -21.3402     3.8873    -9.6506 C.3     
  64 C64          -21.7698     5.3508    -9.7702 C.3     
  65 C65          -21.1869     6.1504    -8.6032 C.3     
  66 C66          -21.6101     7.5920    -8.7210 C.2     
  67 O67          -22.3064     7.9438    -9.6436 O.2     
  68 O68          -21.2134     8.4852    -7.8009 O.3     
  69 C69          -25.3940     2.7752   -12.0846 C.2     
  70 O70          -25.7935     3.7286   -11.4504 O.2     
  71 N71          -23.3580     3.0174   -10.7865 N.am    
  72 C72          -24.0118     2.2293   -11.8342 C.3     
  73 C73          -24.1133     0.7699   -11.3863 C.3     
  74 C74          -22.7085     0.1787   -11.2523 C.3     
  75 C75          -22.8100    -1.2808   -10.8044 C.3     
  76 C76          -21.4052    -1.8720   -10.6705 C.3     
  77 N77          -21.5027    -3.2732   -10.2404 N.3     
  78 C78          -28.4044     1.6464   -13.8242 C.2     
  79 O79          -27.9502     0.5369   -14.0073 O.2     
  80 N80          -26.1861     2.2039   -13.0134 N.am    
  81 C81          -27.5298     2.7346   -13.2568 C.3     
  82 C82          -27.4477     3.8938   -14.2519 C.3     
  83 C83          -31.6585     1.4677   -15.4802 C.2     
  84 O84          -31.7364     2.6739   -15.5800 O.2     
  85 N85          -29.6915     1.9063   -14.1283 N.am    
  86 C86          -30.5418     0.8484   -14.6799 C.3     
  87 C87          -31.1320     0.0204   -13.5367 C.3     
  88 C88          -30.0059    -0.7081   -12.8004 C.3     
  89 C89          -30.5962    -1.5361   -11.6572 C.3     
  90 N90          -29.5180    -2.2337   -10.9522 N.pl3   
  91 C91          -29.8090    -3.0440    -9.8803 C.2     
  92 N92          -28.8497    -3.6646    -9.2531 N.2     
  93 N93          -31.1120    -3.1996    -9.4701 N.pl3   
  94 C94          -34.8016     1.5813   -15.7670 C.2     
  95 O95          -34.6331     1.3176   -14.5953 O.2     
  96 N96          -32.5706     0.6811   -16.0851 N.am    
  97 C97          -33.7174     1.2826   -16.7701 C.3     
  98 C98          -34.2507     0.3089   -17.8229 C.3     
  99 C99          -33.2005     0.0883   -18.8809 C.2     
 100 O100         -32.1781     0.7318   -18.8607 O.2     
 101 O101         -33.4010    -0.8230   -19.8459 O.3     
 102 C102         -38.3488     2.4556   -15.8935 C.2     
 103 O103         -38.4142     2.2504   -17.0871 O.2     
 104 N104         -35.9587     2.1413   -16.1720 N.am    
 105 C105         -37.0127     2.4317   -15.1969 C.3     
 106 C106         -36.7495     3.7938   -14.5517 C.3     
 107 C107         -41.0755     3.9218   -16.5449 C.2     
 108 O108         -40.2728     4.8299   -16.5021 O.2     
 109 N109         -39.4712     2.7051   -15.1902 N.am    
 110 C110         -40.7794     2.6208   -15.8442 C.3     
 111 C111         -41.8582     2.3502   -14.7937 C.3     
 112 C112         -41.6503     0.9801   -14.2015 C.2     
 113 O113         -40.6904     0.3215   -14.5249 O.2     
 114 O114         -42.5316     0.4915   -13.3147 O.3     
 115 C115         -44.0116     5.5112   -18.0335 C.2     
 116 O116         -44.7603     4.6602   -17.6021 O.2     
 117 N117         -42.2323     4.0760   -17.2190 N.am    
 118 C118         -42.5202     5.3407   -17.9000 C.3     
 119 C119         -41.8819     5.3280   -19.2905 C.3     
 120 C120         -42.4571     4.1676   -20.1051 C.3     
 121 C121         -41.9133     4.2286   -21.5339 C.3     
 122 C122         -40.3678     5.1548   -19.1550 C.3     
 123 C123         -46.2630     7.6778   -19.9309 C.2     
 124 O124         -45.3550     8.1372   -20.5908 O.2     
 125 N125         -44.5134     6.6095   -18.6322 N.am    
 126 C126         -45.9632     6.7753   -18.7619 C.3     
 127 C127         -46.5220     7.3977   -17.4807 C.3     
 128 C128         -46.3313     6.4404   -16.3326 C.ar    
 129 C129         -45.1749     6.4891   -15.5767 C.ar    
 130 C130         -45.0000     5.6110   -14.5236 C.ar    
 131 C131         -45.9817     4.6843   -14.2260 C.ar    
 132 C132         -47.1385     4.6362   -14.9813 C.ar    
 133 C133         -47.3153     5.5172   -16.0317 C.ar    
 134 C134         -47.7580    10.2899   -20.9358 C.2     
 135 O135         -47.4897    10.5549   -19.7879 O.2     
 136 N136         -47.5401     7.9743   -20.2432 N.am    
 137 C137         -47.8315     8.8516   -21.3797 C.3     
 138 C138         -49.2358     8.5521   -21.9082 C.3     
 139 C139         -49.4930     9.3787   -23.1697 C.3     
 140 C140         -50.8458     8.9883   -23.7683 C.3     
 141 C141         -50.2704     8.9149   -20.8410 C.3     
 142 O142         -47.9906    11.2765   -21.8157 O.3     
 143 C143           3.1784     8.7308     2.3631 C.2     
 144 O144           2.9118     9.8871     2.6137 O.2     
 145 C145          18.2812    10.7408    13.2742 C.3     
 146 C146          17.0309    11.3853    12.6724 C.3     
 147 C147          16.2996    10.3630    11.8001 C.3     
 148 C148          15.0492    11.0075    11.1984 C.3     
 149 C149          14.3180     9.9851    10.3260 C.3     
 150 C150          13.0676    10.6297     9.7243 C.3     
 151 C151          12.3364     9.6073     8.8520 C.3     
 152 C152          11.0860    10.2518     8.2503 C.3     
 153 C153          10.3548     9.2295     7.3779 C.3     
 154 C154           9.1044     9.8740     6.7762 C.3     
 155 C155           8.3732     8.8516     5.9039 C.3     
 156 C156           7.1228     9.4962     5.3021 C.3     
 157 C157           6.3915     8.4738     4.4298 C.3     
 158 C158           5.1412     9.1183     3.8281 C.3     
 159 C159           4.4099     8.0960     2.9558 C.3     
 160 H160           2.5864     7.0888     1.3541 H       
 161 H161           0.7481     9.3320     1.6947 H       
 162 H162           0.6591     9.8190    -0.7426 H       
 163 H163           3.4951    10.0337     0.3593 H       
 164 H164           2.7396    11.0864    -0.8611 H       
 165 H165           2.1571    11.1131     0.8206 H       
 166 H166           1.5563     7.7342    -1.4871 H       
 167 H167          -1.3840     8.8287     0.4126 H       
 168 H168          -1.5447     6.1108    -0.6433 H       
 169 H169          -3.4810     5.5491     0.8764 H       
 170 H170          -0.8718     6.1370     2.3431 H       
 171 H171          -2.0760     4.8947     2.7614 H       
 172 H172          -1.1242     4.7433     1.2649 H       
 173 H173          -4.0236     7.8741     1.5461 H       
 174 H174          -3.7038     6.8569     2.9713 H       
 175 H175          -2.4628     7.9944     2.3932 H       
 176 H176          -3.9561     5.7562    -1.4982 H       
 177 H177          -5.4779     8.2358    -1.7493 H       
 178 H178          -4.2795     6.8086    -4.1650 H       
 179 H179          -5.5346     8.0675    -4.2554 H       
 180 H180          -2.0146     7.3588    -3.4851 H       
 181 H181          -0.2778     9.0995    -3.3578 H       
 182 H182          -0.9130    11.4781    -3.4031 H       
 183 H183          -3.2850    12.1159    -3.5763 H       
 184 H184          -5.0212    10.3751    -3.7120 H       
 185 H185          -7.5137     7.5848    -3.3908 H       
 186 H186          -8.1593     4.7466    -3.1560 H       
 187 H187          -9.7174     6.9005    -1.6588 H       
 188 H188         -10.2781     5.2277    -1.8947 H       
 189 H189          -8.2582     4.3860    -0.7286 H       
 190 H190          -7.6974     6.0588    -0.4926 H       
 191 H191          -9.7429     6.5599     0.8163 H       
 192 H192         -10.3037     4.8872     0.5803 H       
 193 H193          -7.7181     4.8075     1.7137 H       
 194 H194         -10.8215     5.5059     4.1382 H       
 195 H195          -7.5350     4.4158     4.0554 H       
 196 H196          -8.8468     4.7136     5.0620 H       
 197 H197         -10.7246     4.5948    -3.9678 H       
 198 H198         -11.3333     6.7307    -5.8639 H       
 199 H199         -11.2774     5.2807    -7.8356 H       
 200 H200          -9.6741     5.2738    -7.0625 H       
 201 H201         -10.4349     3.0634    -7.5535 H       
 202 H202         -13.4264     5.7759    -7.2674 H       
 203 H203         -14.9805     3.9028    -5.6539 H       
 204 H204         -16.8012     5.4764    -5.2042 H       
 205 H205         -15.2905     6.1234    -4.5204 H       
 206 H206         -16.4597     7.7628    -5.8053 H       
 207 H207         -17.4295     3.9545    -6.7774 H       
 208 H208         -17.2477     4.6245    -9.6139 H       
 209 H209         -17.4781     1.7450    -8.6320 H       
 210 H210         -17.7666     2.2666   -10.3092 H       
 211 H211         -15.4554     3.1568   -10.4299 H       
 212 H212         -15.1669     2.6351    -8.7527 H       
 213 H213         -15.6056     0.2843    -9.4084 H       
 214 H214         -15.8941     0.8060   -11.0856 H       
 215 H215         -13.3532     1.7446   -10.2861 H       
 216 H216         -11.6596    -1.0783   -11.4555 H       
 217 H217         -15.0773    -1.2735   -10.9283 H       
 218 H218         -13.7245    -2.1349   -11.4290 H       
 219 H219         -19.5016     3.5920   -10.6707 H       
 220 H220         -21.6293     3.5025    -8.6726 H       
 221 H221         -21.4032     5.7614   -10.7110 H       
 222 H222         -22.8577     5.4133    -9.7459 H       
 223 H223         -21.5535     5.7399    -7.6624 H       
 224 H224         -20.0989     6.0880    -8.6275 H       
 225 H225         -21.5100     9.3980    -7.9187 H       
 226 H226         -23.8932     3.4965   -10.1347 H       
 227 H227         -23.4263     2.2879   -12.7517 H       
 228 H228         -24.6219     0.7199   -10.4235 H       
 229 H229         -24.6778     0.2014   -12.1254 H       
 230 H230         -22.1999     0.2287   -12.2151 H       
 231 H231         -22.1440     0.7472   -10.5132 H       
 232 H232         -23.3186    -1.3308    -9.8416 H       
 233 H233         -23.3745    -1.8492   -11.5435 H       
 234 H234         -20.8966    -1.8219   -11.6332 H       
 235 H235         -20.8407    -1.3035    -9.9314 H       
 236 H236         -22.0759    -3.8075   -10.8760 H       
 237 H237         -20.5872    -3.6866   -10.1445 H       
 238 H238         -25.8666     1.4414   -13.5207 H       
 239 H239         -27.9553     3.0906   -12.3186 H       
 240 H240         -28.4474     4.2887   -14.4331 H       
 241 H241         -26.8151     4.6809   -13.8415 H       
 242 H242         -27.0222     3.5378   -15.1902 H       
 243 H243         -30.0548     2.7937   -13.9819 H       
 244 H244         -29.9462     0.2034   -15.3259 H       
 245 H245         -31.6534     0.6794   -12.8423 H       
 246 H246         -31.8334    -0.7094   -13.9411 H       
 247 H247         -29.4846    -1.3670   -13.4947 H       
 248 H248         -29.3046     0.0217   -12.3959 H       
 249 H249         -31.1175    -0.8771   -10.9628 H       
 250 H250         -31.2976    -2.2659   -12.0616 H       
 251 H251         -28.5987    -2.1238   -11.2416 H       
 252 H252         -29.0551    -4.2363    -8.4968 H       
 253 H253         -31.8259    -2.7378    -9.9369 H       
 254 H254         -31.3173    -3.7713    -8.7139 H       
 255 H255         -32.4677    -0.2832   -16.0668 H       
 256 H256         -33.4064     2.2078   -17.2553 H       
 257 H257         -34.4938    -0.6418   -17.3484 H       
 258 H258         -35.1472     0.7255   -18.2821 H       
 259 H259         -32.6989    -0.9289   -20.5024 H       
 260 H260         -36.0935     2.3522   -17.1092 H       
 261 H261         -37.0181     1.6600   -14.4271 H       
 262 H262         -37.5337     4.0098   -13.8261 H       
 263 H263         -35.7831     3.7764   -14.0478 H       
 264 H264         -36.7441     4.5655   -15.3214 H       
 265 H265         -39.4127     2.9405   -14.2511 H       
 266 H266         -40.7699     1.8099   -16.5725 H       
 267 H267         -41.7941     3.1003   -14.0054 H       
 268 H268         -42.8414     2.3983   -15.2618 H       
 269 H269         -42.3560    -0.3917   -12.9623 H       
 270 H270         -42.8743     3.3496   -17.2531 H       
 271 H271         -42.1105     6.1674   -17.3197 H       
 272 H272         -42.0961     6.2689   -19.7972 H       
 273 H273         -42.1671     3.2225   -19.6460 H       
 274 H274         -43.5443     4.2425   -20.1266 H       
 275 H275         -42.3231     3.4019   -22.1142 H       
 276 H276         -42.2033     5.1737   -21.9930 H       
 277 H277         -40.8261     4.1536   -21.5123 H       
 278 H278         -40.1536     4.2138   -18.6483 H       
 279 H279         -39.9131     5.1457   -20.1456 H       
 280 H280         -39.9581     5.9815   -18.5747 H       
 281 H281         -43.9146     7.2902   -18.9772 H       
 282 H282         -46.4269     5.8026   -18.9255 H       
 283 H283         -45.9953     8.3283   -17.2692 H       
 284 H284         -47.5846     7.6029   -17.6100 H       
 285 H285         -44.4080     7.2131   -15.8092 H       
 286 H286         -44.0962     5.6486   -13.9335 H       
 287 H287         -45.8447     3.9977   -13.4037 H       
 288 H288         -47.9053     3.9120   -14.7490 H       
 289 H289         -48.2206     5.4820   -16.6195 H       
 290 H290         -48.2663     7.6069   -19.7154 H       
 291 H291         -47.1012     8.6774   -22.1698 H       
 292 H292         -49.3159     7.4915   -22.1461 H       
 293 H293         -49.5008    10.4384   -22.9145 H       
 294 H294         -48.7045     9.1861   -23.8973 H       
 295 H295         -50.8379     7.9286   -24.0235 H       
 296 H296         -51.6342     9.1809   -23.0407 H       
 297 H297         -51.0290     9.5771   -24.6671 H       
 298 H298         -51.2709     8.7016   -21.2175 H       
 299 H299         -50.0872     8.3261   -19.9423 H       
 300 H300         -50.1903     9.9756   -20.6030 H       
 301 H301         -47.9319    12.1831   -21.4844 H       
 302 H302          17.9913     9.8847    13.8833 H       
 303 H303          18.9409    10.4095    12.4722 H       
 304 H304          18.8022    11.4692    13.8956 H       
 305 H305          16.3712    11.7167    13.4743 H       
 306 H306          17.3207    12.2415    12.0633 H       
 307 H307          16.9593    10.0316    10.9982 H       
 308 H308          16.0097     9.5068    12.4093 H       
 309 H309          14.3895    11.3389    12.0003 H       
 310 H310          15.3391    11.8637    10.5892 H       
 311 H311          14.9777     9.6538     9.5241 H       
 312 H312          14.0281     9.1290    10.9352 H       
 313 H313          12.4079    10.9610    10.5262 H       
 314 H314          13.3575    11.4858     9.1152 H       
 315 H315          12.9961     9.2759     8.0501 H       
 316 H316          12.0465     8.7512     9.4611 H       
 317 H317          10.4263    10.5832     9.0522 H       
 318 H318          11.3759    11.1080     7.6411 H       
 319 H319          11.0145     8.8981     6.5760 H       
 320 H320          10.0649     8.3733     7.9871 H       
 321 H321           8.4447    10.2054     7.5781 H       
 322 H322           9.3943    10.7301     6.1670 H       
 323 H323           9.0329     8.5203     5.1019 H       
 324 H324           8.0833     7.9955     6.5130 H       
 325 H325           6.4631     9.8275     6.1041 H       
 326 H326           7.4127    10.3523     4.6930 H       
 327 H327           7.0512     8.1424     3.6279 H       
 328 H328           6.1017     7.6176     5.0390 H       
 329 H329           4.4815     9.4497     4.6300 H       
 330 H330           5.4311     9.9745     3.2189 H       
 331 H331           4.1200     7.2398     3.5649 H       
 332 H332           5.0696     7.7646     2.1538 H       
@<TRIPOS>BOND
   1    1    2 2
   2    1    4 1
   3    1   10 am
   4    3  143 am
   5    3    4 1
   6    3  160 1
   7    4    5 1
   8    4  161 1
   9    5    6 1
  10    5    7 1
  11    5  162 1
  12    6  163 1
  13    6  164 1
  14    6  165 1
  15    7  166 1
  16    8    9 2
  17    8   11 1
  18    8   17 am
  19   10   11 1
  20   10  167 1
  21   11   12 1
  22   11  168 1
  23   12   13 1
  24   12   14 1
  25   12  169 1
  26   13  170 1
  27   13  171 1
  28   13  172 1
  29   14  173 1
  30   14  174 1
  31   14  175 1
  32   15   16 2
  33   15   18 1
  34   15   28 am
  35   17   18 1
  36   17  176 1
  37   18   19 1
  38   18  177 1
  39   19   20 1
  40   19  178 1
  41   19  179 1
  42   20   21 ar
  43   20   25 ar
  44   21   22 ar
  45   21  180 1
  46   22   23 ar
  47   22  181 1
  48   23   24 ar
  49   23  182 1
  50   24   25 ar
  51   24  183 1
  52   25  184 1
  53   26   27 2
  54   26   29 1
  55   26   39 am
  56   28   29 1
  57   28  185 1
  58   29   30 1
  59   29  186 1
  60   30   31 1
  61   30  187 1
  62   30  188 1
  63   31   32 1
  64   31  189 1
  65   31  190 1
  66   32   33 1
  67   32  191 1
  68   32  192 1
  69   33   34 1
  70   33  193 1
  71   34   35 2
  72   34   36 1
  73   35  194 1
  74   36  195 1
  75   36  196 1
  76   37   38 2
  77   37   40 1
  78   37   45 am
  79   39   40 1
  80   39  197 1
  81   40   41 1
  82   40  198 1
  83   41   42 1
  84   41  199 1
  85   41  200 1
  86   42  201 1
  87   43   44 2
  88   43   46 1
  89   43   51 am
  90   45   46 1
  91   45  202 1
  92   46   47 1
  93   46  203 1
  94   47   48 1
  95   47  204 1
  96   47  205 1
  97   48  206 1
  98   49   50 2
  99   49   52 1
 100   49   62 am
 101   51   52 1
 102   51  207 1
 103   52   53 1
 104   52  208 1
 105   53   54 1
 106   53  209 1
 107   53  210 1
 108   54   55 1
 109   54  211 1
 110   54  212 1
 111   55   56 1
 112   55  213 1
 113   55  214 1
 114   56   57 1
 115   56  215 1
 116   57   58 2
 117   57   59 1
 118   58  216 1
 119   59  217 1
 120   59  218 1
 121   60   61 2
 122   60   63 1
 123   60   71 am
 124   62   63 1
 125   62  219 1
 126   63   64 1
 127   63  220 1
 128   64   65 1
 129   64  221 1
 130   64  222 1
 131   65   66 1
 132   65  223 1
 133   65  224 1
 134   66   67 2
 135   66   68 1
 136   68  225 1
 137   69   70 2
 138   69   72 1
 139   69   80 am
 140   71   72 1
 141   71  226 1
 142   72   73 1
 143   72  227 1
 144   73   74 1
 145   73  228 1
 146   73  229 1
 147   74   75 1
 148   74  230 1
 149   74  231 1
 150   75   76 1
 151   75  232 1
 152   75  233 1
 153   76   77 1
 154   76  234 1
 155   76  235 1
 156   77  236 1
 157   77  237 1
 158   78   79 2
 159   78   81 1
 160   78   85 am
 161   80   81 1
 162   80  238 1
 163   81   82 1
 164   81  239 1
 165   82  240 1
 166   82  241 1
 167   82  242 1
 168   83   84 2
 169   83   86 1
 170   83   96 am
 171   85   86 1
 172   85  243 1
 173   86   87 1
 174   86  244 1
 175   87   88 1
 176   87  245 1
 177   87  246 1
 178   88   89 1
 179   88  247 1
 180   88  248 1
 181   89   90 1
 182   89  249 1
 183   89  250 1
 184   90   91 1
 185   90  251 1
 186   91   92 2
 187   91   93 1
 188   92  252 1
 189   93  253 1
 190   93  254 1
 191   94   95 2
 192   94   97 1
 193   94  104 am
 194   96   97 1
 195   96  255 1
 196   97   98 1
 197   97  256 1
 198   98   99 1
 199   98  257 1
 200   98  258 1
 201   99  100 2
 202   99  101 1
 203  101  259 1
 204  102  103 2
 205  102  105 1
 206  102  109 am
 207  104  105 1
 208  104  260 1
 209  105  106 1
 210  105  261 1
 211  106  262 1
 212  106  263 1
 213  106  264 1
 214  107  108 2
 215  107  110 1
 216  107  117 am
 217  109  110 1
 218  109  265 1
 219  110  111 1
 220  110  266 1
 221  111  112 1
 222  111  267 1
 223  111  268 1
 224  112  113 2
 225  112  114 1
 226  114  269 1
 227  115  116 2
 228  115  118 1
 229  115  125 am
 230  117  118 1
 231  117  270 1
 232  118  119 1
 233  118  271 1
 234  119  120 1
 235  119  122 1
 236  119  272 1
 237  120  121 1
 238  120  273 1
 239  120  274 1
 240  121  275 1
 241  121  276 1
 242  121  277 1
 243  122  278 1
 244  122  279 1
 245  122  280 1
 246  123  124 2
 247  123  126 1
 248  123  136 am
 249  125  126 1
 250  125  281 1
 251  126  127 1
 252  126  282 1
 253  127  128 1
 254  127  283 1
 255  127  284 1
 256  128  129 ar
 257  128  133 ar
 258  129  130 ar
 259  129  285 1
 260  130  131 ar
 261  130  286 1
 262  131  132 ar
 263  131  287 1
 264  132  133 ar
 265  132  288 1
 266  133  289 1
 267  134  135 2
 268  134  137 1
 269  134  142 1
 270  136  137 1
 271  136  290 1
 272  137  138 1
 273  137  291 1
 274  138  139 1
 275  138  141 1
 276  138  292 1
 277  139  140 1
 278  139  293 1
 279  139  294 1
 280  140  295 1
 281  140  296 1
 282  140  297 1
 283  141  298 1
 284  141  299 1
 285  141  300 1
 286  142  301 1
 287  143  144 2
 288  143  159 1
 289  145  146 1
 290  145  302 1
 291  145  303 1
 292  145  304 1
 293  146  147 1
 294  146  305 1
 295  146  306 1
 296  147  148 1
 297  147  307 1
 298  147  308 1
 299  148  149 1
 300  148  309 1
 301  148  310 1
 302  149  150 1
 303  149  311 1
 304  149  312 1
 305  150  151 1
 306  150  313 1
 307  150  314 1
 308  151  152 1
 309  151  315 1
 310  151  316 1
 311  152  153 1
 312  152  317 1
 313  152  318 1
 314  153  154 1
 315  153  319 1
 316  153  320 1
 317  154  155 1
 318  154  321 1
 319  154  322 1
 320  155  156 1
 321  155  323 1
 322  155  324 1
 323  156  157 1
 324  156  325 1
 325  156  326 1
 326  157  158 1
 327  157  327 1
 328  157  328 1
 329  158  159 1
 330  158  329 1
 331  158  330 1
 332  159  331 1
 333  159  332 1

#	End of record

