#	Name: ASD01940054
#	Creating user name:	WinNT
#	Creation time:	15. 06. 2019 20:11

#	Modifying user name:	WinNT
#	Modification time:	15. 06. 2019 20:11

#	Program:	/corina/corina34_cracker 3.40 0067  02.08.2006

@<TRIPOS>MOLECULE
ASD01940054
  49   51    0    0    0
SMALL
NO_CHARGES


@<TRIPOS>ATOM
   1 C1            -0.1653     1.1879    -0.0603 C.ar    
   2 C2            -0.1626    -0.0642    -0.6614 C.ar    
   3 C3            -1.2727    -0.8794    -0.5627 C.ar    
   4 C4            -2.3909    -0.4478     0.1362 C.ar    
   5 C5            -2.3945     0.8031     0.7365 C.ar    
   6 C6            -1.2829     1.6169     0.6440 C.ar    
   7 N7             0.9596     2.0145    -0.1594 N.pl3   
   8 C8             0.8041     3.3858    -0.2530 C.2     
   9 C9             1.8029     4.3489    -0.2308 C.2     
  10 C10            1.3231     5.6544    -0.3471 C.2     
  11 N11            0.0375     5.7990    -0.4584 N.2     
  12 S12           -0.6675     4.2584    -0.4292 S.3     
  13 O13            2.1613     6.7233    -0.3436 O.3     
  14 C14            3.2324     4.0245    -0.0969 C.2     
  15 N15            3.9973     3.8012    -1.2227 N.pl3   
  16 N16            3.7768     3.9482     1.0888 N.2     
  17 O17           -3.4838    -1.2508     0.2324 O.3     
  18 C18           -3.3712    -2.3978     0.9526 C.ar    
  19 C19           -2.2103    -2.6599     1.6644 C.ar    
  20 C20           -2.0983    -3.8279     2.3964 C.ar    
  21 C21           -3.1430    -4.7347     2.4185 C.ar    
  22 C22           -4.4209    -3.3069     0.9814 C.ar    
  23 C23           -4.3014    -4.4758     1.7092 C.ar    
  24 Cl24          -0.6454    -4.1568     3.2878 Cl      
  25 Cl25          -5.8788    -2.9788     0.0979 Cl      
  26 O26            5.3725     3.4892    -1.0939 O.3     
  27 C27            6.0410     3.2832    -2.3399 C.3     
  28 C28            7.5126     2.9543    -2.0809 C.3     
  29 O29            7.6075     1.7069    -1.3902 O.3     
  30 C30            8.2558     2.8565    -3.4147 C.3     
  31 O31            9.6506     2.6651    -3.1700 O.3     
  32 H32            0.7075    -0.4001    -1.2060 H       
  33 H33           -1.2707    -1.8530    -1.0300 H       
  34 H34           -3.2654     1.1385     1.2800 H       
  35 H35           -1.2858     2.5904     1.1116 H       
  36 H36            1.8483     1.6258    -0.1624 H       
  37 H37            2.4745     6.9803    -1.2216 H       
  38 H38            3.5933     3.8579    -2.1027 H       
  39 H39            4.7188     3.7344     1.1771 H       
  40 H40           -1.3942    -1.9527     1.6469 H       
  41 H41           -3.0535    -5.6464     2.9905 H       
  42 H42           -5.1153    -5.1855     1.7275 H       
  43 H43            5.5718     2.4552    -2.8714 H       
  44 H44            5.9717     4.1882    -2.9434 H       
  45 H45            7.9592     3.7411    -1.4730 H       
  46 H46            7.2290     0.9599    -1.8736 H       
  47 H47            7.8680     2.0129    -3.9857 H       
  48 H48            8.1091     3.7765    -3.9807 H       
  49 H49           10.1847     2.5944    -3.9730 H       
@<TRIPOS>BOND
   1    1    2 ar
   2    1    7 1
   3    1    6 ar
   4    2    3 ar
   5    2   32 1
   6    3    4 ar
   7    3   33 1
   8    4    5 ar
   9    4   17 1
  10    5    6 ar
  11    5   34 1
  12    6   35 1
  13    7    8 1
  14    7   36 1
  15    8    9 2
  16    8   12 1
  17    9   10 1
  18    9   14 1
  19   10   11 2
  20   10   13 1
  21   11   12 1
  22   13   37 1
  23   14   15 1
  24   14   16 2
  25   15   26 1
  26   15   38 1
  27   16   39 1
  28   17   18 1
  29   18   19 ar
  30   18   22 ar
  31   19   20 ar
  32   19   40 1
  33   20   21 ar
  34   20   24 1
  35   21   23 ar
  36   21   41 1
  37   22   25 1
  38   22   23 ar
  39   23   42 1
  40   26   27 1
  41   27   28 1
  42   27   43 1
  43   27   44 1
  44   28   29 1
  45   28   30 1
  46   28   45 1
  47   29   46 1
  48   30   31 1
  49   30   47 1
  50   30   48 1
  51   31   49 1

#	End of record

