#	Name: ASD01914644
#	Creating user name:	WinNT
#	Creation time:	15. 06. 2019 20:03

#	Modifying user name:	WinNT
#	Modification time:	15. 06. 2019 20:03

#	Program:	/corina/corina34_cracker 3.40 0067  02.08.2006

@<TRIPOS>MOLECULE
ASD01914644
  59   64    0    0    0
SMALL
NO_CHARGES


@<TRIPOS>ATOM
   1 N1            -0.0178     1.4608     0.0101 N.pl3   
   2 C2             0.0021    -0.0041     0.0020 C.3     
   3 C3             1.4910    -0.3870    -0.0142 C.3     
   4 C4             2.2213     0.9376    -0.0141 C.ar    
   5 C5             3.5678     1.2243    -0.0258 C.ar    
   6 C6             3.9999     2.5532    -0.0228 C.ar    
   7 C7             3.0560     3.5845    -0.0082 C.ar    
   8 C8             1.7149     3.2902     0.0034 C.ar    
   9 C9             1.2797     1.9593     0.0004 C.ar    
  10 C10            5.4416     2.8657    -0.0343 C.2     
  11 O11            6.2587     1.9653    -0.0465 O.2     
  12 N12            5.8530     4.1491    -0.0313 N.am    
  13 C13            7.2847     4.4594    -0.0427 C.3     
  14 C14            7.4777     5.9772    -0.0365 C.3     
  15 C15            8.9729     6.3013    -0.0485 C.3     
  16 C16            9.6126     5.7110    -1.3067 C.3     
  17 C17            9.4197     4.1932    -1.3130 C.3     
  18 C18           10.0822     3.5898    -0.0729 C.3     
  19 C19            9.4425     4.1801     1.1854 C.3     
  20 C20            7.9473     3.8560     1.1973 C.3     
  21 C21            9.6355     5.6978     1.1916 C.3     
  22 C22            7.9244     3.8692    -1.3010 C.3     
  23 N23            9.1577     7.7546    -0.0425 N.am    
  24 C24           10.4005     8.2759    -0.0511 C.2     
  25 O25           11.3677     7.5405    -0.0638 O.2     
  26 C26           10.5873     9.7458    -0.0451 C.ar    
  27 C27           11.8745    10.2784    -0.0540 C.ar    
  28 C28           12.0334    11.6552    -0.0487 C.ar    
  29 C29           10.8988    12.4516    -0.0346 C.ar    
  30 C30            9.6491    11.8534    -0.0263 C.ar    
  31 N31            9.5270    10.5438    -0.0367 N.ar    
  32 H32           -0.8210     2.0047     0.0170 H       
  33 H33           -0.4788    -0.3937     0.8993 H       
  34 H34           -0.4958    -0.3841    -0.8901 H       
  35 H35            1.7459    -0.9623     0.8758 H       
  36 H36            1.7288    -0.9527    -0.9152 H       
  37 H37            4.2905     0.4218    -0.0370 H       
  38 H38            3.3823     4.6141    -0.0058 H       
  39 H39            0.9904     4.0911     0.0150 H       
  40 H40            5.2011     4.8674    -0.0215 H       
  41 H41            7.0056     6.4071    -0.9199 H       
  42 H42            7.0219     6.3977     0.8599 H       
  43 H43            9.1406     6.1409    -2.1902 H       
  44 H44           10.6779     5.9419    -1.3153 H       
  45 H45            9.8754     3.7727    -2.2094 H       
  46 H46            9.9448     2.5085    -0.0774 H       
  47 H47           11.1475     3.8207    -0.0814 H       
  48 H48            9.9145     3.7502     2.0688 H       
  49 H49            7.4915     4.2765     2.0937 H       
  50 H50            7.8098     2.7747     1.1929 H       
  51 H51           10.7007     5.9287     1.1831 H       
  52 H52            9.1797     6.1183     2.0880 H       
  53 H53            7.7870     2.7879    -1.3055 H       
  54 H54            7.4524     4.2991    -2.1845 H       
  55 H55            8.3855     8.3416    -0.0323 H       
  56 H56           12.7364     9.6277    -0.0646 H       
  57 H57           13.0186    12.0975    -0.0550 H       
  58 H58           10.9881    13.5279    -0.0297 H       
  59 H59            8.7630    12.4708    -0.0152 H       
@<TRIPOS>BOND
   1    1    2 1
   2    1    9 1
   3    1   32 1
   4    2    3 1
   5    2   33 1
   6    2   34 1
   7    3    4 1
   8    3   35 1
   9    3   36 1
  10    4    5 ar
  11    4    9 ar
  12    5    6 ar
  13    5   37 1
  14    6    7 ar
  15    6   10 1
  16    7    8 ar
  17    7   38 1
  18    8    9 ar
  19    8   39 1
  20   10   11 2
  21   10   12 am
  22   12   13 1
  23   12   40 1
  24   13   14 1
  25   13   20 1
  26   13   22 1
  27   14   15 1
  28   14   41 1
  29   14   42 1
  30   15   16 1
  31   15   21 1
  32   15   23 1
  33   16   17 1
  34   16   43 1
  35   16   44 1
  36   17   18 1
  37   17   22 1
  38   17   45 1
  39   18   19 1
  40   18   46 1
  41   18   47 1
  42   19   20 1
  43   19   21 1
  44   19   48 1
  45   20   49 1
  46   20   50 1
  47   21   51 1
  48   21   52 1
  49   22   53 1
  50   22   54 1
  51   23   24 am
  52   23   55 1
  53   24   25 2
  54   24   26 1
  55   26   27 ar
  56   26   31 ar
  57   27   28 ar
  58   27   56 1
  59   28   29 ar
  60   28   57 1
  61   29   30 ar
  62   29   58 1
  63   30   31 ar
  64   30   59 1

#	End of record

