#	Name: ASD02038923
#	Creating user name:	WinNT
#	Creation time:	15. 06. 2019 20:17

#	Modifying user name:	WinNT
#	Modification time:	15. 06. 2019 20:17

#	Program:	/corina/corina34_cracker 3.40 0067  02.08.2006

@<TRIPOS>MOLECULE
ASD02038923
  51   54    0    0    0
SMALL
NO_CHARGES


@<TRIPOS>ATOM
   1 C1            -0.0187     1.5258     0.0104 C.3     
   2 C2             0.0021    -0.0041     0.0020 C.3     
   3 C3             2.8085     4.2465    -0.0020 C.3     
   4 N4             1.6234     3.3757     0.0047 N.am    
   5 C5             1.3951     2.0474    -0.0003 C.2     
   6 C6             1.9497     5.3189    -0.6865 C.3     
   7 C7             0.7970     4.5921     0.0200 C.3     
   8 C8             2.1995     6.7406    -0.1794 C.3     
   9 O9             1.4387     7.6651    -0.9594 O.3     
  10 C10            1.5479     8.9814    -0.6366 C.ar    
  11 C11            0.8364     9.9323    -1.3534 C.ar    
  12 C12            2.3664     9.3723     0.4132 C.ar    
  13 C13            2.4772    10.7087     0.7425 C.ar    
  14 C14            1.7695    11.6615     0.0220 C.ar    
  15 C15            0.9471    11.2690    -1.0255 C.ar    
  16 N16            1.8796    13.0177     0.3526 N.am    
  17 C17            0.9519    13.8986    -0.0645 C.2     
  18 C18           -0.2307    13.4442    -0.8769 C.3     
  19 C19            0.1810    12.3053    -1.8061 C.3     
  20 O20            2.3275     1.2719    -0.0133 O.2     
  21 O21            1.0698    15.0723     0.2178 O.2     
  22 C22           -1.4117    -0.5257     0.0127 C.ar    
  23 C23           -2.0714    -0.7584    -1.1797 C.ar    
  24 C24           -3.3680    -1.2368    -1.1705 C.ar    
  25 C25           -4.0058    -1.4828     0.0323 C.ar    
  26 C26           -3.3452    -1.2497     1.2254 C.ar    
  27 C27           -2.0465    -0.7766     1.2149 C.ar    
  28 Cl28          -5.6347    -2.0831     0.0447 Cl      
  29 H29           -0.5459     1.8868    -0.8726 H       
  30 H30           -0.5289     1.8773     0.9072 H       
  31 H31            0.5123    -0.3556    -0.8948 H       
  32 H32            0.5293    -0.3651     0.8851 H       
  33 H33            3.1440     4.5306     0.9955 H       
  34 H34            3.6180     3.8731    -0.6291 H       
  35 H35            1.9252     5.2449    -1.7737 H       
  36 H36           -0.1038     4.5126    -0.5885 H       
  37 H37            0.5968     4.9682     1.0233 H       
  38 H38            1.8975     6.8120     0.8655 H       
  39 H39            3.2599     6.9769    -0.2680 H       
  40 H40            0.1963     9.6272    -2.1680 H       
  41 H41            2.9169     8.6310     0.9734 H       
  42 H42            3.1138    11.0126     1.5603 H       
  43 H43            2.6295    13.3242     0.8862 H       
  44 H44           -1.0171    13.0954    -0.2076 H       
  45 H45           -0.6052    14.2790    -1.4693 H       
  46 H46            0.8125    12.6973    -2.6034 H       
  47 H47           -0.7096    11.8500    -2.2392 H       
  48 H48           -1.5735    -0.5660    -2.1186 H       
  49 H49           -3.8834    -1.4182    -2.1021 H       
  50 H50           -3.8425    -1.4415     2.1646 H       
  51 H51           -1.5307    -0.5946     2.1461 H       
@<TRIPOS>BOND
   1    1    2 1
   2    1    5 1
   3    1   29 1
   4    1   30 1
   5    2   22 1
   6    2   31 1
   7    2   32 1
   8    3    4 1
   9    3    6 1
  10    3   33 1
  11    3   34 1
  12    4    5 am
  13    4    7 1
  14    5   20 2
  15    6    7 1
  16    6    8 1
  17    6   35 1
  18    7   36 1
  19    7   37 1
  20    8    9 1
  21    8   38 1
  22    8   39 1
  23    9   10 1
  24   10   11 ar
  25   10   12 ar
  26   11   15 ar
  27   11   40 1
  28   12   13 ar
  29   12   41 1
  30   13   14 ar
  31   13   42 1
  32   14   15 ar
  33   14   16 1
  34   15   19 1
  35   16   17 am
  36   16   43 1
  37   17   18 1
  38   17   21 2
  39   18   19 1
  40   18   44 1
  41   18   45 1
  42   19   46 1
  43   19   47 1
  44   22   23 ar
  45   22   27 ar
  46   23   24 ar
  47   23   48 1
  48   24   25 ar
  49   24   49 1
  50   25   26 ar
  51   25   28 1
  52   26   27 ar
  53   26   50 1
  54   27   51 1

#	End of record

