#	Name: ASD03430781
#	Creating user name:	WinNT
#	Creation time:	15. 06. 2019 20:41

#	Modifying user name:	WinNT
#	Modification time:	15. 06. 2019 20:41

#	Program:	/corina/corina34_cracker 3.40 0067  02.08.2006

@<TRIPOS>MOLECULE
ASD03430781
  35   39    0    0    0
SMALL
NO_CHARGES


@<TRIPOS>ATOM
   1 C1            -0.0167     1.3822     0.0096 C.ar    
   2 C2             0.0021    -0.0041     0.0020 C.ar    
   3 C3             1.2028    -0.6816    -0.0162 C.ar    
   4 C4             2.4086     0.0131    -0.0163 C.ar    
   5 C5             2.3861     1.4041    -0.0121 C.ar    
   6 C6             1.1815     2.0869     0.0020 C.ar    
   7 C7             1.5510    -2.1456    -0.0509 C.3     
   8 C8             3.0364    -2.1456    -0.4377 C.3     
   9 C9             0.4261    -3.8595     1.0059 C.ar    
  10 C10            1.3149    -2.8200     1.2677 C.ar    
  11 C11            0.7170    -2.9057    -1.0418 C.2     
  12 N12            0.0964    -3.8830    -0.3514 N.am    
  13 O13            0.6204    -2.6835    -2.2302 O.2     
  14 C14            1.7812    -2.6015     2.5467 C.ar    
  15 C15            1.3663    -3.4205     3.5853 C.ar    
  16 C16            0.4843    -4.4548     3.3347 C.ar    
  17 C17            0.0146    -4.6760     2.0563 C.ar    
  18 O18            3.4714    -0.8417    -0.0070 O.3     
  19 O19           -1.2114     2.0353     0.0189 O.3     
  20 C20           -1.1871     3.4168     0.3942 C.3     
  21 C21           -0.0352     4.0982    -0.3570 C.3     
  22 O22            1.1863     3.4485     0.0110 O.3     
  23 F23            2.6430    -1.5893     2.7877 F       
  24 H24           -0.9268    -0.5550     0.0107 H       
  25 H25            3.3147     1.9554    -0.0195 H       
  26 H26            3.5751    -2.9290     0.0953 H       
  27 H27            3.1556    -2.2569    -1.5154 H       
  28 H28           -0.5086    -4.5276    -0.7505 H       
  29 H29            1.7315    -3.2511     4.5875 H       
  30 H30            0.1607    -5.0929     4.1438 H       
  31 H31           -0.6745    -5.4863     1.8693 H       
  32 H32           -2.1321     3.8880     0.1236 H       
  33 H33           -1.0271     3.5031     1.4689 H       
  34 H34           -0.1914     4.0054    -1.4317 H       
  35 H35            0.0111     5.1517    -0.0813 H       
@<TRIPOS>BOND
   1    1    2 ar
   2    1    6 ar
   3    1   19 1
   4    2    3 ar
   5    2   24 1
   6    3    4 ar
   7    3    7 1
   8    4    5 ar
   9    4   18 1
  10    5    6 ar
  11    5   25 1
  12    6   22 1
  13    7    8 1
  14    7   10 1
  15    7   11 1
  16    8   18 1
  17    8   26 1
  18    8   27 1
  19    9   10 ar
  20    9   12 1
  21    9   17 ar
  22   10   14 ar
  23   11   12 am
  24   11   13 2
  25   12   28 1
  26   14   15 ar
  27   14   23 1
  28   15   16 ar
  29   15   29 1
  30   16   17 ar
  31   16   30 1
  32   17   31 1
  33   19   20 1
  34   20   21 1
  35   20   32 1
  36   20   33 1
  37   21   22 1
  38   21   34 1
  39   21   35 1

#	End of record

