#	Name: ASD07930380
#	Creating user name:	WinNT
#	Creation time:	15. 06. 2019 21:12

#	Modifying user name:	WinNT
#	Modification time:	15. 06. 2019 21:12

#	Program:	/corina/corina34_cracker 3.40 0067  02.08.2006

@<TRIPOS>MOLECULE
ASD07930380
  56   58    0    0    0
SMALL
NO_CHARGES


@<TRIPOS>ATOM
   1 N1            -0.0057     1.4467     0.2175 N.pl3   
   2 C2             0.0021    -0.0041     0.0020 C.3     
   3 C3             0.8306    -0.6737     1.1077 C.3     
   4 S4             2.4899     0.0759     1.1072 S.o2    
   5 N5             2.1539     1.7080     1.1107 N.am    
   6 C6             1.1735     2.1400     0.2470 C.2     
   7 C7            -1.4106    -0.5271     0.0446 C.ar    
   8 C8            -2.1695    -0.3775     1.1934 C.ar    
   9 C9             2.8670     2.6374     1.9905 C.3     
  10 C10            0.6228    -0.3151    -1.3614 C.3     
  11 C11           -3.2517    -1.6315    -1.0241 C.ar    
  12 C12           -4.0087    -1.4859     0.1308 C.ar    
  13 C13           -3.4675    -0.8569     1.2353 C.ar    
  14 O14            3.1487    -0.1563     2.3447 O.2     
  15 O15            3.1459    -0.1516    -0.1326 O.2     
  16 C16           -1.9494    -1.1501    -1.0638 C.ar    
  17 N17           -3.7974    -2.2677    -2.1433 N.pl3   
  18 F18           -1.6421     0.2369     2.2749 F       
  19 C19            4.0382     3.2625     1.2301 C.3     
  20 C20            4.8407     4.3536     1.9417 C.3     
  21 C21            5.4502     2.9650     1.7388 C.3     
  22 N22            1.3652     3.1941    -0.5310 N.2     
  23 O23            0.5928     4.6708    -2.1564 O.3     
  24 C24           -0.4828     5.0438    -3.0201 C.3     
  25 C25           -1.7200     5.3713    -2.1816 C.3     
  26 C26           -0.0791     6.2740    -3.8353 C.3     
  27 C27           -0.8010     3.8858    -3.9680 C.3     
  28 C28            0.3974     3.5964    -1.3635 C.2     
  29 O29           -0.6591     2.9931    -1.4053 O.2     
  30 H30           -0.8469     1.9151     0.3351 H       
  31 H31            0.3538    -0.5110     2.0743 H       
  32 H32            0.9100    -1.7429     0.9114 H       
  33 H33            2.1858     3.4228     2.3179 H       
  34 H34            3.2443     2.0981     2.8594 H       
  35 H35            1.6453     0.0615    -1.3895 H       
  36 H36            0.6282    -1.3934    -1.5207 H       
  37 H37            0.0371     0.1651    -2.1453 H       
  38 H38           -5.0198    -1.8637     0.1655 H       
  39 H39           -4.0574    -0.7395     2.1324 H       
  40 H40           -1.3588    -1.2626    -1.9610 H       
  41 H41           -4.7053    -2.6077    -2.1132 H       
  42 H42           -3.2679    -2.3691    -2.9497 H       
  43 H43            3.9011     3.3600     0.1532 H       
  44 H44            5.2319     5.1687     1.3329 H       
  45 H45            4.5342     4.6261     2.9517 H       
  46 H46            5.5446     2.3238     2.6153 H       
  47 H47            6.2423     2.8665     0.9966 H       
  48 H48           -1.4934     6.1963    -1.5063 H       
  49 H49           -2.5405     5.6559    -2.8404 H       
  50 H50           -2.0077     4.4949    -1.6008 H       
  51 H51            0.8024     6.0407    -4.4326 H       
  52 H52           -0.8995     6.5586    -4.4941 H       
  53 H53            0.1476     7.0990    -3.1600 H       
  54 H54           -1.0886     3.0094    -3.3871 H       
  55 H55           -1.6214     4.1703    -4.6267 H       
  56 H56            0.0804     3.6525    -4.5653 H       
@<TRIPOS>BOND
   1    1    2 1
   2    1    6 1
   3    1   30 1
   4    2    3 1
   5    2    7 1
   6    2   10 1
   7    3    4 1
   8    3   31 1
   9    3   32 1
  10    4    5 am
  11    4   14 2
  12    4   15 2
  13    5    6 1
  14    5    9 1
  15    6   22 2
  16    7   16 ar
  17    7    8 ar
  18    8   18 1
  19    8   13 ar
  20    9   19 1
  21    9   33 1
  22    9   34 1
  23   10   35 1
  24   10   36 1
  25   10   37 1
  26   11   12 ar
  27   11   17 1
  28   11   16 ar
  29   12   13 ar
  30   12   38 1
  31   13   39 1
  32   16   40 1
  33   17   41 1
  34   17   42 1
  35   19   20 1
  36   19   21 1
  37   19   43 1
  38   20   21 1
  39   20   44 1
  40   20   45 1
  41   21   46 1
  42   21   47 1
  43   22   28 1
  44   23   24 1
  45   23   28 1
  46   24   25 1
  47   24   26 1
  48   24   27 1
  49   25   48 1
  50   25   49 1
  51   25   50 1
  52   26   51 1
  53   26   52 1
  54   26   53 1
  55   27   54 1
  56   27   55 1
  57   27   56 1
  58   28   29 2

#	End of record

