#	Name: ASD04591127
#	Creating user name:	WinNT
#	Creation time:	15. 06. 2019 20:52

#	Modifying user name:	WinNT
#	Modification time:	15. 06. 2019 20:52

#	Program:	/corina/corina34_cracker 3.40 0067  02.08.2006

@<TRIPOS>MOLECULE
ASD04591127
  78   83    0    0    0
SMALL
NO_CHARGES


@<TRIPOS>ATOM
   1 N1            -2.3782    -2.7058     0.0204 N.ar    
   2 C2            -1.2117    -2.0738     0.0040 C.ar    
   3 N3            -0.0573    -2.7202    -0.0182 N.ar    
   4 C4            -0.0259    -4.0495    -0.0245 C.ar    
   5 C5            -1.2486    -4.7504    -0.0070 C.ar    
   6 C6            -2.4370    -4.0273     0.0156 C.ar    
   7 N7             0.9980    -4.9638    -0.0457 N.pl3   
   8 C8             0.4950    -6.2534    -0.0429 C.ar    
   9 C9            -0.9092    -6.1791    -0.0190 C.ar    
  10 C10            1.0915    -7.5075    -0.0583 C.ar    
  11 N11            0.3552    -8.6000    -0.0507 N.ar    
  12 C12           -0.9655    -8.5647    -0.0284 C.ar    
  13 C13           -1.6436    -7.3644    -0.0122 C.ar    
  14 N14           -1.2019    -0.6887     0.0098 N.pl3   
  15 C15           -2.4013     0.0175    -0.0802 C.ar    
  16 C16            2.4226    -4.6227    -0.0686 C.3     
  17 N17           -3.5340    -0.6390    -0.2721 N.ar    
  18 C18           -4.6918    -0.0124    -0.3634 C.ar    
  19 C19           -4.7605     1.3688    -0.2608 C.ar    
  20 C20           -3.5874     2.0945    -0.0583 C.ar    
  21 C21           -2.3937     1.4030     0.0384 C.ar    
  22 N22           -5.9924     2.0264    -0.3597 N.3     
  23 C23           -7.0849     1.0682    -0.5713 C.3     
  24 C24           -8.3902     1.8275    -0.8194 C.3     
  25 C25           -8.6944     2.7182     0.3884 C.3     
  26 C26           -7.5200     3.6738     0.6165 C.3     
  27 C27           -6.2398     2.8610     0.8230 C.3     
  28 C28            2.7326    -3.7300    -1.2879 C.3     
  29 C29            2.7883    -3.8026     1.1810 C.3     
  30 C30            3.3079    -2.4402     0.6774 C.3     
  31 C31            2.6734    -2.2873    -0.7273 C.3     
  32 C32           -9.9661     3.5256     0.1209 C.3     
  33 N33          -10.3226     4.2869     1.3208 N.am    
  34 O34          -11.7429     5.7755     2.4210 O.3     
  35 C35          -12.9326     6.6046     2.3464 C.3     
  36 C36          -14.1477     5.7266     2.0405 C.3     
  37 C37          -13.1422     7.3174     3.6839 C.3     
  38 C38          -12.7615     7.6434     1.2362 C.3     
  39 C39          -11.4153     5.0759     1.3183 C.2     
  40 O40          -12.1046     5.1560     0.3209 O.2     
  41 H41           -3.3898    -4.5356     0.0297 H       
  42 H42            2.1683    -7.5879    -0.0771 H       
  43 H43           -1.5222    -9.4902    -0.0234 H       
  44 H44           -2.7232    -7.3426     0.0064 H       
  45 H45           -0.3610    -0.2099     0.0766 H       
  46 H46            3.0232    -5.5314    -0.1078 H       
  47 H47           -5.5960    -0.5817    -0.5203 H       
  48 H48           -3.6110     3.1710     0.0253 H       
  49 H49           -1.4660     1.9332     0.1955 H       
  50 H50           -6.8580     0.4439    -1.4356 H       
  51 H51           -7.1928     0.4394     0.3124 H       
  52 H52           -8.2876     2.4461    -1.7110 H       
  53 H53           -9.2038     1.1161    -0.9610 H       
  54 H54           -8.8355     2.0969     1.2728 H       
  55 H55           -7.4037     4.3214    -0.2525 H       
  56 H56           -7.7118     4.2815     1.5008 H       
  57 H57           -6.3517     2.2238     1.7002 H       
  58 H58           -5.3992     3.5388     0.9714 H       
  59 H59            3.7273    -3.9475    -1.6769 H       
  60 H60            1.9798    -3.8689    -2.0637 H       
  61 H61            1.9059    -3.6584     1.8044 H       
  62 H62            3.5671    -4.3129     1.7477 H       
  63 H63            2.9748    -1.6379     1.3358 H       
  64 H64            4.3955    -2.4494     0.6058 H       
  65 H65            3.2614    -1.6084    -1.3449 H       
  66 H66            1.6415    -1.9450    -0.6498 H       
  67 H67           -9.7928     4.2128    -0.7072 H       
  68 H68          -10.7803     2.8473    -0.1342 H       
  69 H69           -9.7723     4.2230     2.1170 H       
  70 H70          -14.2696     4.9865     2.8314 H       
  71 H71          -15.0408     6.3489     1.9845 H       
  72 H72          -13.9983     5.2188     1.0876 H       
  73 H73          -12.2766     7.9429     3.9019 H       
  74 H74          -14.0353     7.9397     3.6279 H       
  75 H75          -13.2641     6.5773     4.4748 H       
  76 H76          -12.6122     7.1356     0.2834 H       
  77 H77          -13.6547     8.2657     1.1802 H       
  78 H78          -11.8959     8.2689     1.4542 H       
@<TRIPOS>BOND
   1    1    2 ar
   2    1    6 ar
   3    2    3 ar
   4    2   14 1
   5    3    4 ar
   6    4    5 ar
   7    4    7 1
   8    5    6 ar
   9    5    9 1
  10    6   41 1
  11    7    8 1
  12    7   16 1
  13    8    9 ar
  14    8   10 ar
  15    9   13 ar
  16   10   11 ar
  17   10   42 1
  18   11   12 ar
  19   12   13 ar
  20   12   43 1
  21   13   44 1
  22   14   15 1
  23   14   45 1
  24   15   17 ar
  25   15   21 ar
  26   16   29 1
  27   16   28 1
  28   16   46 1
  29   17   18 ar
  30   18   19 ar
  31   18   47 1
  32   19   20 ar
  33   19   22 1
  34   20   21 ar
  35   20   48 1
  36   21   49 1
  37   22   23 1
  38   22   27 1
  39   23   24 1
  40   23   50 1
  41   23   51 1
  42   24   25 1
  43   24   52 1
  44   24   53 1
  45   25   26 1
  46   25   32 1
  47   25   54 1
  48   26   27 1
  49   26   55 1
  50   26   56 1
  51   27   57 1
  52   27   58 1
  53   28   31 1
  54   28   59 1
  55   28   60 1
  56   29   30 1
  57   29   61 1
  58   29   62 1
  59   30   31 1
  60   30   63 1
  61   30   64 1
  62   31   65 1
  63   31   66 1
  64   32   33 1
  65   32   67 1
  66   32   68 1
  67   33   39 am
  68   33   69 1
  69   34   35 1
  70   34   39 1
  71   35   36 1
  72   35   37 1
  73   35   38 1
  74   36   70 1
  75   36   71 1
  76   36   72 1
  77   37   73 1
  78   37   74 1
  79   37   75 1
  80   38   76 1
  81   38   77 1
  82   38   78 1
  83   39   40 2

#	End of record

