#	Name: ASD02562074
#	Creating user name:	WinNT
#	Creation time:	15. 06. 2019 20:25

#	Modifying user name:	WinNT
#	Modification time:	15. 06. 2019 20:25

#	Program:	/corina/corina34_cracker 3.40 0067  02.08.2006

@<TRIPOS>MOLECULE
ASD02562074
  43   46    0    0    0
SMALL
NO_CHARGES


@<TRIPOS>ATOM
   1 C1             0.8237     1.8608    -2.1838 C.2     
   2 C2             0.8857     0.5068    -2.5561 C.2     
   3 C3             1.7413    -0.3326    -1.9349 C.2     
   4 N4             2.5597     0.1212    -0.9353 N.pl3   
   5 C5             2.5208     1.4419    -0.5503 C.2     
   6 C6             1.6299     2.3273    -1.1933 C.2     
   7 C7             3.4974    -0.5020    -0.1582 C.2     
   8 C8             4.0138     0.4554     0.6887 C.2     
   9 N9             3.3983     1.6228     0.4230 N.2     
  10 N10            3.8608    -1.8482    -0.2120 N.3     
  11 C11            5.0620     0.2374     1.7129 C.ar    
  12 C12            5.1308    -2.0224    -0.9294 C.3     
  13 C13            5.8316    -3.2860    -0.4263 C.3     
  14 C14            7.1544    -3.4674    -1.1735 C.3     
  15 C15            6.8792    -3.5994    -2.6728 C.3     
  16 C16            6.1784    -2.3358    -3.1759 C.3     
  17 C17            4.8557    -2.1544    -2.4287 C.3     
  18 C18            4.9572    -0.8281     2.6060 C.ar    
  19 C19            5.9370    -1.0264     3.5576 C.ar    
  20 C20            7.0217    -0.1708     3.6270 C.ar    
  21 C21            7.1321     0.8887     2.7441 C.ar    
  22 C22            6.1614     1.0946     1.7841 C.ar    
  23 Cl23           6.3013     2.4240     0.6765 Cl      
  24 Cl24           1.8042    -2.0019    -2.4072 Cl      
  25 H25            0.1406     2.5298    -2.6861 H       
  26 H26            0.2453     0.1361    -3.3428 H       
  27 H27            1.5891     3.3663    -0.9016 H       
  28 H28            3.9109    -2.2464     0.7138 H       
  29 H29            5.7699    -1.1574    -0.7521 H       
  30 H30            6.0276    -3.1919     0.6418 H       
  31 H31            5.1925    -4.1509    -0.6036 H       
  32 H32            7.7935    -2.6024    -0.9962 H       
  33 H33            7.6536    -4.3676    -0.8151 H       
  34 H34            7.8216    -3.7287    -3.2051 H       
  35 H35            6.2401    -4.4644    -2.8501 H       
  36 H36            6.8175    -1.4708    -2.9985 H       
  37 H37            5.9824    -2.4298    -4.2440 H       
  38 H38            4.2166    -3.0194    -2.6060 H       
  39 H39            4.3564    -1.2542    -2.7871 H       
  40 H40            4.1108    -1.4969     2.5534 H       
  41 H41            5.8564    -1.8514     4.2500 H       
  42 H42            7.7854    -0.3303     4.3739 H       
  43 H43            7.9813     1.5533     2.8032 H       
@<TRIPOS>BOND
   1    1    2 1
   2    1    6 2
   3    1   25 1
   4    2    3 2
   5    2   26 1
   6    3    4 1
   7    3   24 1
   8    4    5 1
   9    4    7 1
  10    5    6 1
  11    5    9 2
  12    6   27 1
  13    7    8 2
  14    7   10 1
  15    8    9 1
  16    8   11 1
  17   10   12 1
  18   10   28 1
  19   11   18 ar
  20   11   22 ar
  21   12   13 1
  22   12   17 1
  23   12   29 1
  24   13   14 1
  25   13   30 1
  26   13   31 1
  27   14   15 1
  28   14   32 1
  29   14   33 1
  30   15   16 1
  31   15   34 1
  32   15   35 1
  33   16   17 1
  34   16   36 1
  35   16   37 1
  36   17   38 1
  37   17   39 1
  38   18   19 ar
  39   18   40 1
  40   19   20 ar
  41   19   41 1
  42   20   21 ar
  43   20   42 1
  44   21   22 ar
  45   21   43 1
  46   22   23 1

#	End of record

