#	Name: ASD00431116
#	Creating user name:	WinNT
#	Creation time:	15. 06. 2019 18:35

#	Modifying user name:	WinNT
#	Modification time:	15. 06. 2019 18:35

#	Program:	/corina/corina34_cracker 3.40 0067  02.08.2006

@<TRIPOS>MOLECULE
ASD00431116
  49   51    0    0    0
SMALL
NO_CHARGES


@<TRIPOS>ATOM
   1 C1             0.0128     1.5130     0.3797 C.2     
   2 C2             0.0349     0.0062     0.3819 C.3     
   3 O3             1.0539     2.1348     0.3953 O.2     
   4 N4            -1.1640     2.1696     0.3549 N.am    
   5 C5            -1.1855     3.6345     0.3527 C.3     
   6 C6            -1.0378     4.1446    -1.0821 C.3     
   7 C7            -2.4925     4.1185     0.9260 C.2     
   8 C8            -2.6310     5.1628     1.7466 C.2     
   9 C9            -3.9256     5.4243     2.1477 C.2     
  10 C10           -4.8519     4.5799     1.6453 C.2     
  11 S11           -4.0645     3.3973     0.6084 S.3     
  12 S12           -7.1081     5.8216     2.9472 S.3     
  13 C13           -8.6167     5.0876     2.6200 C.2     
  14 N14           -8.4633     4.0772     1.8226 N.2     
  15 C15           -7.2372     3.8071     1.4251 C.2     
  16 C16           -6.2977     4.6428     1.9188 C.2     
  17 O17           -9.8044     5.5028     3.1230 O.3     
  18 C18          -10.9332     4.8805     2.6906 C.ar    
  19 C19          -11.1480     3.5438     2.9935 C.ar    
  20 C20          -12.2951     2.9120     2.5546 C.ar    
  21 C21          -13.2321     3.6137     1.8105 C.ar    
  22 C22          -13.0172     4.9501     1.5072 C.ar    
  23 C23          -11.8732     5.5838     1.9512 C.ar    
  24 O24          -14.3611     2.9914     1.3781 O.3     
  25 C25          -14.4544     1.5840     1.6072 C.3     
  26 C26          -15.1967     1.3292     2.9206 C.3     
  27 C27          -15.2182     0.9292     0.4545 C.3     
  28 H28            1.0676    -0.3420     0.3986 H       
  29 H29           -0.4875    -0.3636     1.2643 H       
  30 H30           -0.4595    -0.3658    -0.5155 H       
  31 H31           -1.9966     1.6723     0.3384 H       
  32 H32           -0.3614     4.0108     0.9588 H       
  33 H33           -1.0539     5.2345    -1.0837 H       
  34 H34           -0.0925     3.7945    -1.4968 H       
  35 H35           -1.8620     3.7682    -1.6882 H       
  36 H36           -1.7916     5.7589     2.0729 H       
  37 H37           -4.1776     6.2389     2.8105 H       
  38 H38           -7.0029     2.9875     0.7620 H       
  39 H39          -10.4182     2.9973     3.5723 H       
  40 H40          -12.4623     1.8714     2.7905 H       
  41 H41          -13.7466     5.4962     0.9275 H       
  42 H42          -11.7082     6.6256     1.7191 H       
  43 H43          -13.4527     1.1585     1.6675 H       
  44 H44          -14.6526     1.7957     3.7419 H       
  45 H45          -16.1984     1.7548     2.8604 H       
  46 H46          -15.2679     0.2557     3.0954 H       
  47 H47          -14.6894     1.1107    -0.4812 H       
  48 H48          -15.2894    -0.1444     0.6293 H       
  49 H49          -16.2199     1.3547     0.3942 H       
@<TRIPOS>BOND
   1    1    2 1
   2    1    3 2
   3    1    4 am
   4    2   28 1
   5    2   29 1
   6    2   30 1
   7    4    5 1
   8    4   31 1
   9    5    6 1
  10    5    7 1
  11    5   32 1
  12    6   33 1
  13    6   34 1
  14    6   35 1
  15    7    8 2
  16    7   11 1
  17    8    9 1
  18    8   36 1
  19    9   10 2
  20    9   37 1
  21   10   11 1
  22   10   16 1
  23   12   13 1
  24   12   16 1
  25   13   14 2
  26   13   17 1
  27   14   15 1
  28   15   16 2
  29   15   38 1
  30   17   18 1
  31   18   19 ar
  32   18   23 ar
  33   19   20 ar
  34   19   39 1
  35   20   21 ar
  36   20   40 1
  37   21   22 ar
  38   21   24 1
  39   22   23 ar
  40   22   41 1
  41   23   42 1
  42   24   25 1
  43   25   26 1
  44   25   27 1
  45   25   43 1
  46   26   44 1
  47   26   45 1
  48   26   46 1
  49   27   47 1
  50   27   48 1
  51   27   49 1

#	End of record

