#	Name: ASD02198330
#	Creating user name:	WinNT
#	Creation time:	15. 06. 2019 20:19

#	Modifying user name:	WinNT
#	Modification time:	15. 06. 2019 20:19

#	Program:	/corina/corina34_cracker 3.40 0067  02.08.2006

@<TRIPOS>MOLECULE
ASD02198330
  48   51    0    0    0
SMALL
NO_CHARGES


@<TRIPOS>ATOM
   1 C1             0.6491     2.4106     2.8244 C.2     
   2 C2             0.4456     1.1439     3.3416 C.2     
   3 S3             2.0012     2.3181     1.6987 S.3     
   4 C4             2.1682     0.6465     2.0106 C.2     
   5 N5             1.2806     0.2455     2.8749 N.2     
   6 N6            -0.5455     0.8515     4.2645 N.pl3   
   7 C7            -0.0939     3.5640     3.1365 C.2     
   8 C8             0.3468     4.8859     2.6370 C.ar    
   9 O9            -1.1007     3.4747     3.8184 O.2     
  10 N10            3.1135    -0.1667     1.4269 N.pl3   
  11 C11           -0.5486     5.9557     2.6018 C.ar    
  12 C12            1.6606     5.0690     2.2048 C.ar    
  13 C13            2.0653     6.3038     1.7407 C.ar    
  14 C14            1.1716     7.3591     1.7039 C.ar    
  15 C15           -0.1316     7.1852     2.1357 C.ar    
  16 C16            3.0767    -1.5493     1.6425 C.ar    
  17 C17            1.8788    -2.1691     1.9736 C.ar    
  18 C18            1.8431    -3.5331     2.1857 C.ar    
  19 C19            3.0037    -4.2843     2.0681 C.ar    
  20 C20            4.2009    -3.6657     1.7378 C.ar    
  21 C21            4.2370    -2.3027     1.5198 C.ar    
  22 F22            3.5686     6.2217    -0.0943 F       
  23 F23            3.8678     7.8294     1.5011 F       
  24 C24            3.4841     6.5034     1.2735 C.3     
  25 F25            4.3329     5.6445     1.9799 F       
  26 O26            2.9678    -5.6273     2.2770 O.3     
  27 C27            2.9883    -6.0740     3.5601 C.ar    
  28 C28            2.9405    -5.1699     4.6117 C.ar    
  29 C29            3.0512    -7.4354     3.8212 C.ar    
  30 C30            3.0714    -7.8869     5.1265 C.ar    
  31 C31            3.0290    -6.9836     6.1725 C.ar    
  32 C32            2.9610    -5.6267     5.9152 C.ar    
  33 H33           -1.1380     1.5525     4.5784 H       
  34 H34           -0.6469    -0.0542     4.5968 H       
  35 H35            3.8051     0.2185     0.8662 H       
  36 H36           -1.5659     5.8212     2.9385 H       
  37 H37            2.3595     4.2461     2.2337 H       
  38 H38            1.4934     8.3238     1.3405 H       
  39 H39           -0.8247     8.0128     2.1041 H       
  40 H40            0.9754    -1.5844     2.0655 H       
  41 H41            0.9117    -4.0152     2.4435 H       
  42 H42            5.1039    -4.2511     1.6467 H       
  43 H43            5.1688    -1.8214     1.2623 H       
  44 H44            2.8878    -4.1100     4.4112 H       
  45 H45            3.0840    -8.1414     3.0046 H       
  46 H46            3.1200    -8.9464     5.3303 H       
  47 H47            3.0449    -7.3386     7.1924 H       
  48 H48            2.9284    -4.9232     6.7340 H       
@<TRIPOS>BOND
   1    1    2 2
   2    1    3 1
   3    1    7 1
   4    2    6 1
   5    2    5 1
   6    3    4 1
   7    4    5 2
   8    4   10 1
   9    6   33 1
  10    6   34 1
  11    7    8 1
  12    7    9 2
  13    8   11 ar
  14    8   12 ar
  15   10   16 1
  16   10   35 1
  17   11   15 ar
  18   11   36 1
  19   12   13 ar
  20   12   37 1
  21   13   14 ar
  22   13   24 1
  23   14   15 ar
  24   14   38 1
  25   15   39 1
  26   16   17 ar
  27   16   21 ar
  28   17   18 ar
  29   17   40 1
  30   18   19 ar
  31   18   41 1
  32   19   20 ar
  33   19   26 1
  34   20   21 ar
  35   20   42 1
  36   21   43 1
  37   22   24 1
  38   23   24 1
  39   24   25 1
  40   26   27 1
  41   27   28 ar
  42   27   29 ar
  43   28   32 ar
  44   28   44 1
  45   29   30 ar
  46   29   45 1
  47   30   31 ar
  48   30   46 1
  49   31   32 ar
  50   31   47 1
  51   32   48 1

#	End of record

