#	Name: ASD01028130
#	Creating user name:	WinNT
#	Creation time:	15. 06. 2019 18:56

#	Modifying user name:	WinNT
#	Modification time:	15. 06. 2019 18:56

#	Program:	/corina/corina34_cracker 3.40 0067  02.08.2006

@<TRIPOS>MOLECULE
ASD01028130
  74   79    0    0    0
SMALL
NO_CHARGES


@<TRIPOS>ATOM
   1 N1            -0.4568     0.4953     0.1213 N.pl3   
   2 C2            -0.7714    -0.8741     0.2259 C.ar    
   3 C3            -2.1044    -1.2381     0.0625 C.ar    
   4 C4            -3.1309    -0.1796    -0.2431 C.3     
   5 C5             0.1937    -1.8400     0.4894 C.ar    
   6 C6            -0.1895    -3.1723     0.5912 C.ar    
   7 C7            -1.5230    -3.5298     0.4320 C.ar    
   8 C8            -2.4770    -2.5647     0.1722 C.ar    
   9 O9            -0.4943     5.4689     0.1612 O.3     
  10 C10            0.5011     4.5476     0.0586 C.ar    
  11 C11            0.1745     3.2194     0.1110 C.ar    
  12 C12            1.1837     2.2533     0.0248 C.ar    
  13 C13            0.8809     0.8669     0.0591 C.ar    
  14 N14            1.8775     0.0044     0.0118 N.ar    
  15 O15            1.5369    -1.7514     0.6852 O.3     
  16 C16            2.0184    -3.0597     1.0099 C.3     
  17 O17            0.9031    -3.9419     0.8569 O.3     
  18 C18            1.8343     4.9475    -0.1045 C.ar    
  19 C19            2.8448     4.0106    -0.1815 C.ar    
  20 C20            2.5365     2.6470    -0.1076 C.ar    
  21 N21            3.4749     1.6869    -0.1541 N.ar    
  22 C22            3.1335     0.4203    -0.0925 C.ar    
  23 O23            2.1348     6.2697    -0.1877 O.3     
  24 C24            3.5121     6.6128    -0.3536 C.3     
  25 C25           -1.8242     5.0122    -0.1110 C.3     
  26 N26           -4.1784    -0.1819     0.7845 N.3     
  27 C27           -4.1353     1.0480     1.5894 C.3     
  28 C28           -4.5503     2.2384     0.7236 C.3     
  29 C29           -2.6242     4.9424     1.1923 C.3     
  30 N30           -4.5456     3.4619     1.5538 N.am    
  31 C31           -4.1032     4.7047     0.8821 C.3     
  32 C32           -5.5052    -0.3713     0.1832 C.3     
  33 S33           -5.0090     3.4431     3.1436 S.o2    
  34 O34           -5.2934     4.7904     3.4946 O.2     
  35 O35           -5.9541     2.3900     3.2736 O.2     
  36 C36           -3.6016     2.9685     4.0915 C.ar    
  37 C37           -3.6792     2.9278     5.4713 C.ar    
  38 C38           -2.5753     2.5556     6.2149 C.ar    
  39 C39           -1.3934     2.2234     5.5790 C.ar    
  40 C40           -1.3161     2.2631     4.1996 C.ar    
  41 C41           -2.4217     2.6313     3.4555 C.ar    
  42 N42           -4.9445     3.2835     6.1522 N.pl3   
  43 O43           -4.9835     3.3523     7.3676 O.2     
  44 O44           -5.9466     3.5073     5.4971 O.2     
  45 H45           -1.1588     1.1639     0.0894 H       
  46 H46           -2.6476     0.7972    -0.2644 H       
  47 H47           -3.5788    -0.3806    -1.2163 H       
  48 H48           -1.8149    -4.5666     0.5118 H       
  49 H49           -3.5129    -2.8466     0.0546 H       
  50 H50           -0.8570     2.9182     0.2188 H       
  51 H51            2.8188    -3.3450     0.3273 H       
  52 H52            2.3766    -3.0829     2.0391 H       
  53 H53            3.8703     4.3285    -0.2987 H       
  54 H54            3.9167    -0.3225    -0.1282 H       
  55 H55            3.6127     7.6969    -0.4056 H       
  56 H56            4.0852     6.2348     0.4930 H       
  57 H57            3.8888     6.1683    -1.2748 H       
  58 H58           -2.3112     5.7036    -0.7987 H       
  59 H59           -1.7817     4.0216    -0.5638 H       
  60 H60           -4.8205     0.9551     2.4319 H       
  61 H61           -3.1223     1.2042     1.9603 H       
  62 H62           -3.8457     2.3538    -0.1000 H       
  63 H63           -5.5519     2.0701     0.3278 H       
  64 H64           -2.2468     4.1242     1.8056 H       
  65 H65           -2.5144     5.8811     1.7354 H       
  66 H66           -4.6920     5.5460     1.2477 H       
  67 H67           -4.2381     4.6047    -0.1949 H       
  68 H68           -5.5105    -1.2900    -0.4034 H       
  69 H69           -6.2550    -0.4394     0.9715 H       
  70 H70           -5.7348     0.4747    -0.4645 H       
  71 H71           -2.6357     2.5245     7.2928 H       
  72 H72           -0.5306     1.9332     6.1600 H       
  73 H73           -0.3928     2.0040     3.7028 H       
  74 H74           -2.3613     2.6624     2.3777 H       
@<TRIPOS>BOND
   1    1    2 1
   2    1   13 1
   3    1   45 1
   4    2    3 ar
   5    2    5 ar
   6    3    4 1
   7    3    8 ar
   8    4   26 1
   9    4   46 1
  10    4   47 1
  11    5    6 ar
  12    5   15 1
  13    6    7 ar
  14    6   17 1
  15    7    8 ar
  16    7   48 1
  17    8   49 1
  18    9   10 1
  19    9   25 1
  20   10   11 ar
  21   10   18 ar
  22   11   12 ar
  23   11   50 1
  24   12   13 ar
  25   12   20 ar
  26   13   14 ar
  27   14   22 ar
  28   15   16 1
  29   16   17 1
  30   16   51 1
  31   16   52 1
  32   18   19 ar
  33   18   23 1
  34   19   20 ar
  35   19   53 1
  36   20   21 ar
  37   21   22 ar
  38   22   54 1
  39   23   24 1
  40   24   55 1
  41   24   56 1
  42   24   57 1
  43   25   29 1
  44   25   58 1
  45   25   59 1
  46   26   27 1
  47   26   32 1
  48   27   28 1
  49   27   60 1
  50   27   61 1
  51   28   30 1
  52   28   62 1
  53   28   63 1
  54   29   31 1
  55   29   64 1
  56   29   65 1
  57   30   31 1
  58   30   33 am
  59   31   66 1
  60   31   67 1
  61   32   68 1
  62   32   69 1
  63   32   70 1
  64   33   34 2
  65   33   35 2
  66   33   36 1
  67   36   37 ar
  68   36   41 ar
  69   37   38 ar
  70   37   42 1
  71   38   39 ar
  72   38   71 1
  73   39   40 ar
  74   39   72 1
  75   40   41 ar
  76   40   73 1
  77   41   74 1
  78   42   43 2
  79   42   44 2

#	End of record

