#	Name: ASD01883489
#	Creating user name:	WinNT
#	Creation time:	15. 06. 2019 19:46

#	Modifying user name:	WinNT
#	Modification time:	15. 06. 2019 19:46

#	Program:	/corina/corina34_cracker 3.40 0067  02.08.2006

@<TRIPOS>MOLECULE
ASD01883489
  55   58    0    0    0
SMALL
NO_CHARGES


@<TRIPOS>ATOM
   1 N1            -0.0161     1.3416     0.0135 N.am    
   2 C2            -0.0057     0.0081    -0.1691 C.2     
   3 C3            -1.2228    -0.7136    -0.1679 C.2     
   4 C4            -2.4239    -0.0108     0.0261 C.2     
   5 C5            -2.3696     1.3830     0.2116 C.2     
   6 C6            -1.1777     2.0190     0.2060 C.2     
   7 O7             1.0510    -0.5772    -0.3357 O.2     
   8 C8            -1.2302    -2.1325    -0.3612 C.1     
   9 N9            -1.2361    -3.2581    -0.5144 N.1     
  10 N10           -3.6309    -0.6732     0.0341 N.pl3   
  11 C11           -4.6460    -0.3917    -0.9901 C.3     
  12 C12           -5.9650    -0.0419    -0.2940 C.3     
  13 C13           -6.3418    -1.1678     0.6717 C.3     
  14 C14           -5.2551    -1.3111     1.7398 C.3     
  15 C15           -3.9258    -1.6793     1.0633 C.3     
  16 C16            1.2513     2.0764     0.0105 C.3     
  17 C17            1.5766     2.5263    -1.4152 C.3     
  18 O18            0.5937     3.4662    -1.8540 O.3     
  19 C19            0.7368     3.9681    -3.1088 C.ar    
  20 C20           -0.1815     4.8852    -3.5993 C.ar    
  21 C21           -0.0338     5.3939    -4.8751 C.ar    
  22 C22            1.0281     4.9898    -5.6631 C.ar    
  23 C23            1.9443     4.0756    -5.1768 C.ar    
  24 C24            1.8046     3.5686    -3.8994 C.ar    
  25 C25           -7.6562    -0.8429     1.3333 C.ar    
  26 C26           -8.7356    -1.6929     1.1805 C.ar    
  27 C27           -9.9414    -1.3949     1.7874 C.ar    
  28 C28          -10.0676    -0.2471     2.5473 C.ar    
  29 C29           -8.9879     0.6024     2.7009 C.ar    
  30 C30           -7.7810     0.3021     2.0976 C.ar    
  31 H31           -3.2803     1.9438     0.3621 H       
  32 H32           -1.1485     3.0890     0.3494 H       
  33 H33           -4.3226     0.4490    -1.6038 H       
  34 H34           -4.7861    -1.2721    -1.6174 H       
  35 H35           -5.8479     0.8891     0.2607 H       
  36 H36           -6.7505     0.0752    -1.0405 H       
  37 H37           -6.4345    -2.1034     0.1202 H       
  38 H38           -5.1447    -0.3681     2.2752 H       
  39 H39           -5.5353    -2.0974     2.4407 H       
  40 H40           -4.0096    -2.6648     0.6052 H       
  41 H41           -3.1276    -1.6858     1.8056 H       
  42 H42            1.1663     2.9500     0.6567 H       
  43 H43            2.0476     1.4289     0.3777 H       
  44 H44            2.5606     2.9948    -1.4328 H       
  45 H45            1.5740     1.6615    -2.0787 H       
  46 H46           -1.0112     5.2008    -2.9843 H       
  47 H47           -0.7485     6.1075    -5.2575 H       
  48 H48            1.1418     5.3886    -6.6603 H       
  49 H49            2.7725     3.7610    -5.7945 H       
  50 H50            2.5205     2.8546    -3.5199 H       
  51 H51           -8.6370    -2.5896     0.5868 H       
  52 H52          -10.7849    -2.0586     1.6674 H       
  53 H53          -11.0098    -0.0139     3.0209 H       
  54 H54           -9.0867     1.4993     3.2944 H       
  55 H55           -6.9374     0.9658     2.2176 H       
@<TRIPOS>BOND
   1    1    2 am
   2    1   16 1
   3    1    6 1
   4    2    3 1
   5    2    7 2
   6    3    4 2
   7    3    8 1
   8    4    5 1
   9    4   10 1
  10    5    6 2
  11    5   31 1
  12    6   32 1
  13    8    9 3
  14   10   11 1
  15   10   15 1
  16   11   12 1
  17   11   33 1
  18   11   34 1
  19   12   13 1
  20   12   35 1
  21   12   36 1
  22   13   14 1
  23   13   25 1
  24   13   37 1
  25   14   15 1
  26   14   38 1
  27   14   39 1
  28   15   40 1
  29   15   41 1
  30   16   17 1
  31   16   42 1
  32   16   43 1
  33   17   18 1
  34   17   44 1
  35   17   45 1
  36   18   19 1
  37   19   20 ar
  38   19   24 ar
  39   20   21 ar
  40   20   46 1
  41   21   22 ar
  42   21   47 1
  43   22   23 ar
  44   22   48 1
  45   23   24 ar
  46   23   49 1
  47   24   50 1
  48   25   26 ar
  49   25   30 ar
  50   26   27 ar
  51   26   51 1
  52   27   28 ar
  53   27   52 1
  54   28   29 ar
  55   28   53 1
  56   29   30 ar
  57   29   54 1
  58   30   55 1

#	End of record

