#	Name: ASD01720001
#	Creating user name:	WinNT
#	Creation time:	15. 06. 2019 19:22

#	Modifying user name:	WinNT
#	Modification time:	15. 06. 2019 19:22

#	Program:	/corina/corina34_cracker 3.40 0067  02.08.2006

@<TRIPOS>MOLECULE
ASD01720001
  57   59    0    0    0
SMALL
NO_CHARGES


@<TRIPOS>ATOM
   1 C1            -0.3198     4.3851     1.8832 C.ar    
   2 C2            -0.0889     3.0318     2.0829 C.ar    
   3 C3            -1.0439     2.1066     1.7082 C.ar    
   4 C4            -2.2292     2.5285     1.1346 C.ar    
   5 C5            -2.4615     3.8766     0.9342 C.ar    
   6 C6            -1.5123     4.8061     1.3128 C.ar    
   7 C7             1.2030     2.5713     2.7075 C.3     
   8 N8             2.2605     2.5646     1.6937 N.pl3   
   9 C9             3.0852     3.5896     1.3892 C.2     
  10 N10            3.8932     3.2082     0.4381 N.2     
  11 C11            3.6161     1.9389     0.1048 C.2     
  12 C12            2.6010     1.5161     0.8822 C.2     
  13 O13            0.6182     5.2972     2.2510 O.3     
  14 C14           -1.7662     6.2754     1.0940 C.3     
  15 N15           -2.2081     6.8869     2.3498 N.pl3   
  16 C16           -1.4164     7.4388     3.2945 C.2     
  17 C17           -3.5010     7.0109     2.7820 C.2     
  18 C18           -3.4545     7.6286     3.9778 C.2     
  19 N19           -2.1686     7.8784     4.2661 N.2     
  20 C20           -3.2693     1.5171     0.7268 C.3     
  21 C21           -4.4748     2.2403     0.1231 C.3     
  22 C22           -5.4107     1.2182    -0.5251 C.3     
  23 C23           -5.5261    -0.0119     0.3774 C.3     
  24 C24           -6.7944     1.8426    -0.7157 C.3     
  25 C25           -4.8475     0.8017    -1.8854 C.3     
  26 C26           -2.6741     0.5637    -0.3113 C.3     
  27 C27           -3.7149     0.7204     1.9546 C.3     
  28 H28           -0.8644     1.0530     1.8631 H       
  29 H29           -3.3880     4.2036     0.4856 H       
  30 H30            1.4782     3.2497     3.5151 H       
  31 H31            1.0753     1.5648     3.1061 H       
  32 H32            3.0770     4.5639     1.8552 H       
  33 H33            4.1212     1.3567    -0.6517 H       
  34 H34            2.1400     0.5396     0.8644 H       
  35 H35            1.2576     5.5057     1.5562 H       
  36 H36           -0.8475     6.7569     0.7590 H       
  37 H37           -2.5397     6.4016     0.3365 H       
  38 H38           -0.3393     7.5054     3.2527 H       
  39 H39           -4.3878     6.6774     2.2637 H       
  40 H40           -4.3039     7.8812     4.5951 H       
  41 H41           -5.0087     2.7748     0.9088 H       
  42 H42           -4.1329     2.9494    -0.6309 H       
  43 H43           -5.7129     0.3063     1.4030 H       
  44 H44           -6.3505    -0.6375     0.0352 H       
  45 H45           -4.5972    -0.5807     0.3368 H       
  46 H46           -6.7122     2.7189    -1.3586 H       
  47 H47           -7.4612     1.1144    -1.1775 H       
  48 H48           -7.1957     2.1393     0.2534 H       
  49 H49           -4.3693    -0.1738    -1.7973 H       
  50 H50           -5.6578     0.7449    -2.6122 H       
  51 H51           -4.1141     1.5373    -2.2156 H       
  52 H52           -1.5942     0.5063    -0.1750 H       
  53 H53           -3.1093    -0.4277    -0.1858 H       
  54 H54           -2.8948     0.9333    -1.3127 H       
  55 H55           -4.3935     1.3267     2.5545 H       
  56 H56           -4.2263    -0.1869     1.6330 H       
  57 H57           -2.8424     0.4537     2.5510 H       
@<TRIPOS>BOND
   1    1    2 ar
   2    1   13 1
   3    1    6 ar
   4    2    3 ar
   5    2    7 1
   6    3    4 ar
   7    3   28 1
   8    4    5 ar
   9    4   20 1
  10    5    6 ar
  11    5   29 1
  12    6   14 1
  13    7    8 1
  14    7   30 1
  15    7   31 1
  16    8    9 1
  17    8   12 1
  18    9   10 2
  19    9   32 1
  20   10   11 1
  21   11   12 2
  22   11   33 1
  23   12   34 1
  24   13   35 1
  25   14   15 1
  26   14   36 1
  27   14   37 1
  28   15   16 1
  29   15   17 1
  30   16   19 2
  31   16   38 1
  32   17   18 2
  33   17   39 1
  34   18   19 1
  35   18   40 1
  36   20   21 1
  37   20   26 1
  38   20   27 1
  39   21   22 1
  40   21   41 1
  41   21   42 1
  42   22   23 1
  43   22   24 1
  44   22   25 1
  45   23   43 1
  46   23   44 1
  47   23   45 1
  48   24   46 1
  49   24   47 1
  50   24   48 1
  51   25   49 1
  52   25   50 1
  53   25   51 1
  54   26   52 1
  55   26   53 1
  56   26   54 1
  57   27   55 1
  58   27   56 1
  59   27   57 1

#	End of record

