#	Name: ASD01813224
#	Creating user name:	WinNT
#	Creation time:	15. 06. 2019 19:30

#	Modifying user name:	WinNT
#	Modification time:	15. 06. 2019 19:30

#	Program:	/corina/corina34_cracker 3.40 0067  02.08.2006

@<TRIPOS>MOLECULE
ASD01813224
  47   50    0    0    0
SMALL
NO_CHARGES


@<TRIPOS>ATOM
   1 C1            -0.0169     1.3972     0.0097 C.2     
   2 C2             0.0021    -0.0041     0.0020 C.2     
   3 C3             1.1986    -0.6593    -0.0129 C.2     
   4 C4             2.3918     0.0821    -0.0204 C.2     
   5 N5             2.3437     1.4497    -0.0122 N.am    
   6 C6             1.1421     2.0937     0.0024 C.2     
   7 C7             3.6227    -0.5889    -0.0356 C.2     
   8 C8             4.7877     0.1218    -0.0425 C.2     
   9 C9             4.7345     1.5280    -0.0346 C.2     
  10 C10            3.4812     2.1736    -0.0189 C.2     
  11 O11            3.4258     3.3917    -0.0123 O.2     
  12 C12            5.9703     2.3140    -0.0413 C.2     
  13 O13            5.9124     3.6618    -0.0337 O.3     
  14 O14            7.0487     1.7516    -0.0537 O.2     
  15 C15            3.6593    -2.0954    -0.0439 C.3     
  16 N16            3.7787    -2.5747    -1.4274 N.3     
  17 C17            4.0555    -4.0202    -1.4629 C.3     
  18 C18            3.8541    -4.5189    -2.8961 C.3     
  19 C19            4.5934    -3.6250    -3.8524 C.2     
  20 C20            5.0224    -2.4280    -3.5178 C.2     
  21 C21            4.8234    -1.8390    -2.1509 C.3     
  22 C22            4.8488    -4.1117    -5.2244 C.ar    
  23 C23            6.1567    -4.3369    -5.6556 C.ar    
  24 C24            6.3889    -4.7912    -6.9372 C.ar    
  25 C25            5.3273    -5.0232    -7.7954 C.ar    
  26 C26            4.0274    -4.8011    -7.3733 C.ar    
  27 C27            3.7826    -4.3533    -6.0917 C.ar    
  28 Cl28           5.6273    -5.5943    -9.4071 Cl      
  29 H29           -0.9605     1.9226     0.0170 H       
  30 H30           -0.9233    -0.5609     0.0082 H       
  31 H31            1.2282    -1.7389    -0.0187 H       
  32 H32            1.1156     3.1733     0.0087 H       
  33 H33            5.7393    -0.3889    -0.0536 H       
  34 H34            6.7544     4.1373    -0.0385 H       
  35 H35            4.5153    -2.4412     0.5356 H       
  36 H36            2.7412    -2.4836     0.3971 H       
  37 H37            5.0841    -4.2038    -1.1525 H       
  38 H38            3.3698    -4.5408    -0.7944 H       
  39 H39            4.2350    -5.5365    -2.9828 H       
  40 H40            2.7913    -4.5084    -3.1378 H       
  41 H41            5.5417    -1.8409    -4.2608 H       
  42 H42            4.5291    -0.7939    -2.2474 H       
  43 H43            5.7578    -1.8983    -1.5927 H       
  44 H44            6.9855    -4.1556    -4.9873 H       
  45 H45            7.4007    -4.9659    -7.2721 H       
  46 H46            3.2034    -4.9835    -8.0471 H       
  47 H47            2.7683    -4.1807    -5.7634 H       
@<TRIPOS>BOND
   1    1    2 1
   2    1    6 2
   3    1   29 1
   4    2    3 2
   5    2   30 1
   6    3    4 1
   7    3   31 1
   8    4    5 1
   9    4    7 2
  10    5    6 1
  11    5   10 am
  12    6   32 1
  13    7    8 1
  14    7   15 1
  15    8    9 2
  16    8   33 1
  17    9   10 1
  18    9   12 1
  19   10   11 2
  20   12   13 1
  21   12   14 2
  22   13   34 1
  23   15   16 1
  24   15   35 1
  25   15   36 1
  26   16   17 1
  27   16   21 1
  28   17   18 1
  29   17   37 1
  30   17   38 1
  31   18   19 1
  32   18   39 1
  33   18   40 1
  34   19   20 2
  35   19   22 1
  36   20   21 1
  37   20   41 1
  38   21   42 1
  39   21   43 1
  40   22   23 ar
  41   22   27 ar
  42   23   24 ar
  43   23   44 1
  44   24   25 ar
  45   24   45 1
  46   25   26 ar
  47   25   28 1
  48   26   27 ar
  49   26   46 1
  50   27   47 1

#	End of record

