#	Name: ASD01903130
#	Creating user name:	WinNT
#	Creation time:	15. 06. 2019 19:54

#	Modifying user name:	WinNT
#	Modification time:	15. 06. 2019 19:54

#	Program:	/corina/corina34_cracker 3.40 0067  02.08.2006

@<TRIPOS>MOLECULE
ASD01903130
  44   46    0    0    0
SMALL
NO_CHARGES


@<TRIPOS>ATOM
   1 C1             0.0592     0.9768    -0.9847 C.ar    
   2 C2            -0.0698    -0.0311    -0.0423 C.ar    
   3 C3             1.0226    -0.3752     0.7383 C.ar    
   4 N4             2.1753     0.2414     0.5961 N.ar    
   5 C5             2.3408     1.2118    -0.2946 C.ar    
   6 C6             1.2861     1.6090    -1.1131 C.ar    
   7 C7             3.6580     1.8780    -0.4186 C.2     
   8 N8             4.6822     1.4984     0.3708 N.am    
   9 O9             3.8151     2.7669    -1.2323 O.2     
  10 C10            5.9496     2.0607     0.1905 C.ar    
  11 C11            6.0723     3.3847    -0.2116 C.ar    
  12 C12            7.3246     3.9402    -0.3898 C.ar    
  13 C13            8.4579     3.1812    -0.1687 C.ar    
  14 C14            8.3415     1.8576     0.2332 C.ar    
  15 C15            7.0871     1.2984     0.4186 C.ar    
  16 O16            9.4570     1.1124     0.4503 O.3     
  17 C17            9.2640    -0.2693     0.7596 C.3     
  18 S18           10.0528     3.8940    -0.3979 S.o2    
  19 N19           10.8006     3.9076     1.0796 N.am    
  20 O20           10.7851     2.9864    -1.2099 O.2     
  21 O21            9.8377     5.2535    -0.7513 O.2     
  22 C22           10.2641     4.6600     2.1269 C.ar    
  23 C23           10.1645     4.1106     3.3989 C.ar    
  24 C24            9.6340     4.8574     4.4324 C.ar    
  25 C25            9.2021     6.1508     4.2020 C.ar    
  26 C26            9.2997     6.7007     2.9370 C.ar    
  27 C27            9.8341     5.9613     1.9002 C.ar    
  28 H28           -0.7760     1.2601    -1.6081 H       
  29 H29           -1.0124    -0.5432     0.0829 H       
  30 H30            0.9256    -1.1602     1.4737 H       
  31 H31            1.4223     2.3984    -1.8375 H       
  32 H32            4.5401     0.8350     1.0642 H       
  33 H33            5.1881     3.9801    -0.3854 H       
  34 H34            7.4181     4.9696    -0.7028 H       
  35 H35            6.9947     0.2688     0.7313 H       
  36 H36           10.2263    -0.7290     0.9852 H       
  37 H37            8.6066    -0.3597     1.6244 H       
  38 H38            8.8120    -0.7733    -0.0947 H       
  39 H39           11.6112     3.3930     1.2177 H       
  40 H40           10.5013     3.1005     3.5794 H       
  41 H41            9.5560     4.4308     5.4215 H       
  42 H42            8.7873     6.7325     5.0119 H       
  43 H43            8.9615     7.7111     2.7605 H       
  44 H44            9.9104     6.3915     0.9126 H       
@<TRIPOS>BOND
   1    1    2 ar
   2    1    6 ar
   3    1   28 1
   4    2    3 ar
   5    2   29 1
   6    3    4 ar
   7    3   30 1
   8    4    5 ar
   9    5    6 ar
  10    5    7 1
  11    6   31 1
  12    7    8 am
  13    7    9 2
  14    8   10 1
  15    8   32 1
  16   10   11 ar
  17   10   15 ar
  18   11   12 ar
  19   11   33 1
  20   12   13 ar
  21   12   34 1
  22   13   14 ar
  23   13   18 1
  24   14   15 ar
  25   14   16 1
  26   15   35 1
  27   16   17 1
  28   17   36 1
  29   17   37 1
  30   17   38 1
  31   18   19 am
  32   18   20 2
  33   18   21 2
  34   19   22 1
  35   19   39 1
  36   22   23 ar
  37   22   27 ar
  38   23   24 ar
  39   23   40 1
  40   24   25 ar
  41   24   41 1
  42   25   26 ar
  43   25   42 1
  44   26   27 ar
  45   26   43 1
  46   27   44 1

#	End of record

