#	Name: ASD01880785
#	Creating user name:	WinNT
#	Creation time:	15. 06. 2019 19:41

#	Modifying user name:	WinNT
#	Modification time:	15. 06. 2019 19:41

#	Program:	/corina/corina34_cracker 3.40 0067  02.08.2006

@<TRIPOS>MOLECULE
ASD01880785
  41   43    0    0    0
SMALL
NO_CHARGES


@<TRIPOS>ATOM
   1 N1            -0.0158     1.3136     0.0093 N.ar    
   2 C2             0.0021    -0.0041     0.0020 C.ar    
   3 N3             1.1320    -0.6826    -0.0124 N.ar    
   4 C4             2.2985    -0.0575    -0.0202 C.ar    
   5 C5             2.3211     1.3280    -0.0130 C.ar    
   6 C6             1.1121     2.0071     0.0022 C.ar    
   7 C7             3.6278     2.0786    -0.0209 C.3     
   8 O8             4.0285     2.3231    -1.3706 O.3     
   9 C9             5.1935     2.9941    -1.5555 C.ar    
  10 C10            5.6423     3.2656    -2.8444 C.ar    
  11 C11            6.8206     3.9449    -3.0301 C.ar    
  12 C12            7.5751     4.3671    -1.9303 C.ar    
  13 C13            7.1196     4.0922    -0.6380 C.ar    
  14 C14            5.9343     3.4146    -0.4574 C.ar    
  15 C15            7.5733     4.3904    -4.2590 C.3     
  16 N16            8.7767     5.0771    -3.7759 N.am    
  17 C17            8.7737     5.0613    -2.4319 C.2     
  18 O18            9.6373     5.5508    -1.7299 O.2     
  19 C19            3.5851    -0.8421    -0.0362 C.3     
  20 C20            7.9221     4.5403     0.5563 C.3     
  21 I21            1.0708     4.1017     0.0132 I       
  22 C22            9.4529     7.1408    -4.9007 C.3     
  23 C23            9.8114     5.6802    -4.6196 C.3     
  24 H24           -0.9342    -0.5424     0.0084 H       
  25 H25            3.5043     3.0285     0.4992 H       
  26 H26            4.3908     1.4851     0.4828 H       
  27 H27            5.0645     2.9420    -3.6975 H       
  28 H28            5.5826     3.2028     0.5415 H       
  29 H29            7.8517     3.5260    -4.8618 H       
  30 H30            6.9611     5.0754    -4.8456 H       
  31 H31            3.8857    -1.0261    -1.0677 H       
  32 H32            4.3634    -0.2740     0.4732 H       
  33 H33            3.4368    -1.7937     0.4743 H       
  34 H34            7.6041     5.5397     0.8535 H       
  35 H35            7.7621     3.8474     1.3823 H       
  36 H36            8.9806     4.5581     0.2968 H       
  37 H37            9.3879     7.6866    -3.9594 H       
  38 H38           10.2228     7.5896    -5.5284 H       
  39 H39            8.4927     7.1869    -5.4145 H       
  40 H40           10.7716     5.6342    -4.1058 H       
  41 H41            9.8765     5.1344    -5.5608 H       
@<TRIPOS>BOND
   1    1    2 ar
   2    1    6 ar
   3    2    3 ar
   4    2   24 1
   5    3    4 ar
   6    4    5 ar
   7    4   19 1
   8    5    6 ar
   9    5    7 1
  10    6   21 1
  11    7    8 1
  12    7   25 1
  13    7   26 1
  14    8    9 1
  15    9   10 ar
  16    9   14 ar
  17   10   11 ar
  18   10   27 1
  19   11   12 ar
  20   11   15 1
  21   12   13 ar
  22   12   17 1
  23   13   14 ar
  24   13   20 1
  25   14   28 1
  26   15   16 1
  27   15   29 1
  28   15   30 1
  29   16   17 am
  30   16   23 1
  31   17   18 2
  32   19   31 1
  33   19   32 1
  34   19   33 1
  35   20   34 1
  36   20   35 1
  37   20   36 1
  38   22   23 1
  39   22   37 1
  40   22   38 1
  41   22   39 1
  42   23   40 1
  43   23   41 1

#	End of record

