#	Name: ASD08178203
#	Creating user name:	WinNT
#	Creation time:	15. 06. 2019 21:18

#	Modifying user name:	WinNT
#	Modification time:	15. 06. 2019 21:18

#	Program:	/corina/corina34_cracker 3.40 0067  02.08.2006

@<TRIPOS>MOLECULE
ASD08178203
  76   79    0    0    0
SMALL
NO_CHARGES


@<TRIPOS>ATOM
   1 C1             0.4555     0.8789    -1.3240 C.ar    
   2 C2             0.3751    -0.6155    -1.1474 C.3     
   3 C3            -0.3803    -0.9366     0.1438 C.3     
   4 C4            -0.4620    -2.4539     0.3230 C.3     
   5 C5            -1.2174    -2.7749     1.6142 C.3     
   6 C6            -1.2979    -4.2694     1.7908 C.2     
   7 N7            -0.4377    -5.0127     2.4114 N.2     
   8 N8            -0.6849    -6.2502     2.4508 N.2     
   9 C9            -1.7699    -6.6671     1.8711 C.2     
  10 S10           -2.5842    -5.3196     1.1959 S.3     
  11 N11           -2.2018    -7.9878     1.8130 N.am    
  12 C12           -3.3508    -8.2937     1.1783 C.2     
  13 C13           -3.7610    -9.7347     1.0156 C.3     
  14 O14           -4.0545    -7.4094     0.7382 O.2     
  15 C15           -5.1298    -9.7995     0.3884 C.ar    
  16 C16            1.6883     1.4919    -1.4941 C.ar    
  17 C17            1.7150     2.8691    -1.6529 C.ar    
  18 C18            0.5005     3.5519    -1.6316 C.ar    
  19 N19           -0.6280     2.8789    -1.4631 N.ar    
  20 N20           -0.6463     1.6033    -1.3222 N.ar    
  21 N21            0.4731     4.9375    -1.7865 N.am    
  22 C22           -0.6890     5.6074    -1.6552 C.2     
  23 C23           -0.7407     7.0878    -1.9322 C.3     
  24 O24           -1.6930     5.0189    -1.3140 O.2     
  25 C25           -2.1443     7.5910    -1.7139 C.ar    
  26 C26           -2.5294     8.0455    -0.4665 C.ar    
  27 C27           -3.8170     8.5070    -0.2662 C.ar    
  28 C28           -4.7193     8.5144    -1.3133 C.ar    
  29 C29           -4.3340     8.0607    -2.5610 C.ar    
  30 C30           -3.0451     7.6033    -2.7624 C.ar    
  31 C31           -5.2582    -9.8485    -0.9871 C.ar    
  32 C32           -6.5137    -9.9079    -1.5624 C.ar    
  33 C33           -7.6408    -9.9187    -0.7622 C.ar    
  34 C34           -7.5124    -9.8706     0.6133 C.ar    
  35 C35           -6.2567    -9.8156     1.1888 C.ar    
  36 C36           -1.4080    -9.0464     2.4418 C.3     
  37 O37           -0.7297    -9.8173     1.4152 O.3     
  38 C38            0.3465    -9.2554     0.8425 C.2     
  39 O39            0.7692    -8.2013     1.2549 O.2     
  40 C40            1.0274    -9.9394    -0.3149 C.3     
  41 C41            2.2170    -9.0957    -0.7777 C.3     
  42 C42            2.9083    -9.7901    -1.9527 C.3     
  43 H43           -0.1517    -1.0537    -1.9951 H       
  44 H44            1.3819    -1.0296    -1.0919 H       
  45 H45            0.1465    -0.4984     0.9915 H       
  46 H46           -1.3871    -0.5226     0.0883 H       
  47 H47           -0.9888    -2.8920    -0.5246 H       
  48 H48            0.5448    -2.8679     0.3786 H       
  49 H49           -0.6906    -2.3368     2.4619 H       
  50 H50           -2.2242    -2.3609     1.5587 H       
  51 H51           -3.0431   -10.2467     0.3748 H       
  52 H52           -3.7856   -10.2180     1.9923 H       
  53 H53            2.6004     0.9136    -1.5023 H       
  54 H54            2.6479     3.3962    -1.7885 H       
  55 H55            1.2904     5.4191    -1.9888 H       
  56 H56           -0.0595     7.6076    -1.2585 H       
  57 H57           -0.4441     7.2749    -2.9643 H       
  58 H58           -1.8244     8.0398     0.3517 H       
  59 H59           -4.1180     8.8615     0.7086 H       
  60 H60           -5.7254     8.8743    -1.1567 H       
  61 H61           -5.0390     8.0662    -3.3790 H       
  62 H62           -2.7441     7.2488    -3.7371 H       
  63 H63           -4.3776    -9.8400    -1.6123 H       
  64 H64           -6.6140    -9.9455    -2.6371 H       
  65 H65           -8.6218    -9.9644    -1.2117 H       
  66 H66           -8.3930    -9.8787     1.2385 H       
  67 H67           -6.1564    -9.7780     2.2634 H       
  68 H68           -0.6699    -8.5999     3.1081 H       
  69 H69           -2.0646    -9.7018     3.0139 H       
  70 H70            1.3793   -10.9219    -0.0004 H       
  71 H71            0.3206   -10.0526    -1.1369 H       
  72 H72            1.8651    -8.1132    -1.0922 H       
  73 H73            2.9238    -8.9825     0.0443 H       
  74 H74            3.2602   -10.7726    -1.6382 H       
  75 H75            2.2015    -9.9033    -2.7748 H       
  76 H76            3.7558    -9.1890    -2.2824 H       
@<TRIPOS>BOND
   1    1    2 1
   2    1   16 ar
   3    1   20 ar
   4    2    3 1
   5    2   43 1
   6    2   44 1
   7    3    4 1
   8    3   45 1
   9    3   46 1
  10    4    5 1
  11    4   47 1
  12    4   48 1
  13    5    6 1
  14    5   49 1
  15    5   50 1
  16    6    7 2
  17    6   10 1
  18    7    8 1
  19    8    9 2
  20    9   10 1
  21    9   11 1
  22   11   12 am
  23   11   36 1
  24   12   13 1
  25   12   14 2
  26   13   15 1
  27   13   51 1
  28   13   52 1
  29   15   31 ar
  30   15   35 ar
  31   16   17 ar
  32   16   53 1
  33   17   18 ar
  34   17   54 1
  35   18   19 ar
  36   18   21 1
  37   19   20 ar
  38   21   22 am
  39   21   55 1
  40   22   23 1
  41   22   24 2
  42   23   25 1
  43   23   56 1
  44   23   57 1
  45   25   26 ar
  46   25   30 ar
  47   26   27 ar
  48   26   58 1
  49   27   28 ar
  50   27   59 1
  51   28   29 ar
  52   28   60 1
  53   29   30 ar
  54   29   61 1
  55   30   62 1
  56   31   32 ar
  57   31   63 1
  58   32   33 ar
  59   32   64 1
  60   33   34 ar
  61   33   65 1
  62   34   35 ar
  63   34   66 1
  64   35   67 1
  65   36   37 1
  66   36   68 1
  67   36   69 1
  68   37   38 1
  69   38   39 2
  70   38   40 1
  71   40   41 1
  72   40   70 1
  73   40   71 1
  74   41   42 1
  75   41   72 1
  76   41   73 1
  77   42   74 1
  78   42   75 1
  79   42   76 1

#	End of record

