#	Name: ASD01208006
#	Creating user name:	WinNT
#	Creation time:	15. 06. 2019 19:09

#	Modifying user name:	WinNT
#	Modification time:	15. 06. 2019 19:09

#	Program:	/corina/corina34_cracker 3.40 0067  02.08.2006

@<TRIPOS>MOLECULE
ASD01208006
  60   63    0    0    0
SMALL
NO_CHARGES


@<TRIPOS>ATOM
   1 C1            -0.0844     1.4339     0.0274 C.ar    
   2 C2             0.0183     0.0510    -0.0132 C.ar    
   3 C3            -1.1248    -0.7353     0.0270 C.ar    
   4 C4            -2.3734    -0.1417     0.1074 C.ar    
   5 C5            -2.4812     1.2493     0.1485 C.ar    
   6 C6            -1.3289     2.0358     0.1136 C.ar    
   7 C7            -3.8113     1.8872     0.2343 C.2     
   8 C8            -4.0547     3.2413     0.2811 C.2     
   9 N9            -5.0128     1.2334     0.2749 N.pl3   
  10 C10           -6.0173     2.1684     0.3529 C.2     
  11 C11           -5.4370     3.4198     0.3576 C.2     
  12 C12           -7.4562     1.8849     0.4159 C.2     
  13 S13           -8.7288     3.0984     0.5155 S.3     
  14 N14           -7.9934     0.6903     0.4012 N.2     
  15 C15           -9.2927     0.6180     0.4639 C.2     
  16 C16           -9.9430     1.8210     0.5366 C.2     
  17 O17            1.0381     2.1991    -0.0117 O.3     
  18 C18            0.8561     3.6142    -0.0909 C.3     
  19 C19            2.0902     4.2520    -0.7321 C.3     
  20 O20            3.2213     4.0635     0.1206 O.3     
  21 C21            0.6610     4.1828     1.3161 C.3     
  22 O22           -1.0185    -2.0894    -0.0131 O.3     
  23 C23           -1.4877    -2.7338    -1.1136 C.ar    
  24 C24           -1.9387    -2.0062    -2.2056 C.ar    
  25 C25           -1.5113    -4.1207    -1.1496 C.ar    
  26 C26           -1.9883    -4.7734    -2.2697 C.ar    
  27 C27           -2.4416    -4.0458    -3.3547 C.ar    
  28 C28           -2.4147    -2.6637    -3.3233 C.ar    
  29 S29           -3.0483    -4.8814    -4.7824 S.o2    
  30 C30           -4.8228    -5.0869    -4.4667 C.3     
  31 O31           -2.8340    -3.9618    -5.8442 O.2     
  32 O32           -2.3887    -6.1398    -4.7587 O.2     
  33 C33            4.4329     4.6249    -0.3883 C.3     
  34 C34          -11.3903     2.0122     0.6154 C.2     
  35 O35          -11.9035     3.2584     0.6826 O.3     
  36 O36          -12.1319     1.0478     0.6204 O.2     
  37 H37            0.9905    -0.4151    -0.0766 H       
  38 H38           -3.2625    -0.7541     0.1379 H       
  39 H39           -1.4079     3.1124     0.1456 H       
  40 H40           -3.3108     4.0239     0.2623 H       
  41 H41           -5.1350     0.2714     0.2522 H       
  42 H42           -5.9570     4.3648     0.4108 H       
  43 H43           -9.8200    -0.3246     0.4575 H       
  44 H44           -0.0228     3.8342    -0.6968 H       
  45 H45            2.2810     3.7837    -1.6977 H       
  46 H46            1.9158     5.3186    -0.8738 H       
  47 H47           -0.2181     3.7284     1.7729 H       
  48 H48            1.5400     3.9629     1.9220 H       
  49 H49            0.5222     5.2623     1.2557 H       
  50 H50           -1.9179    -0.9266    -2.1816 H       
  51 H51           -1.1567    -4.6895    -0.3027 H       
  52 H52           -2.0069    -5.8528    -2.2983 H       
  53 H53           -2.7697    -2.0978    -4.1719 H       
  54 H54           -5.2852    -4.1078    -4.3410 H       
  55 H55           -5.2846    -5.6013    -5.3094 H       
  56 H56           -4.9648    -5.6749    -3.5600 H       
  57 H57            4.3071     5.6992    -0.5229 H       
  58 H58            5.2434     4.4394     0.3165 H       
  59 H59            4.6723     4.1643    -1.3468 H       
  60 H60          -12.8689     3.2840     0.7318 H       
@<TRIPOS>BOND
   1    1    2 ar
   2    1   17 1
   3    1    6 ar
   4    2    3 ar
   5    2   37 1
   6    3    4 ar
   7    3   22 1
   8    4    5 ar
   9    4   38 1
  10    5    6 ar
  11    5    7 1
  12    6   39 1
  13    7    8 2
  14    7    9 1
  15    8   11 1
  16    8   40 1
  17    9   10 1
  18    9   41 1
  19   10   11 2
  20   10   12 1
  21   11   42 1
  22   12   13 1
  23   12   14 2
  24   13   16 1
  25   14   15 1
  26   15   16 2
  27   15   43 1
  28   16   34 1
  29   17   18 1
  30   18   19 1
  31   18   21 1
  32   18   44 1
  33   19   20 1
  34   19   45 1
  35   19   46 1
  36   20   33 1
  37   21   47 1
  38   21   48 1
  39   21   49 1
  40   22   23 1
  41   23   24 ar
  42   23   25 ar
  43   24   28 ar
  44   24   50 1
  45   25   26 ar
  46   25   51 1
  47   26   27 ar
  48   26   52 1
  49   27   28 ar
  50   27   29 1
  51   28   53 1
  52   29   30 1
  53   29   31 2
  54   29   32 2
  55   30   54 1
  56   30   55 1
  57   30   56 1
  58   33   57 1
  59   33   58 1
  60   33   59 1
  61   34   36 2
  62   34   35 1
  63   35   60 1

#	End of record

