#	Name: ASD04590639
#	Creating user name:	WinNT
#	Creation time:	15. 06. 2019 20:51

#	Modifying user name:	WinNT
#	Modification time:	15. 06. 2019 20:51

#	Program:	/corina/corina34_cracker 3.40 0067  02.08.2006

@<TRIPOS>MOLECULE
ASD04590639
  63   68    0    0    0
SMALL
NO_CHARGES


@<TRIPOS>ATOM
   1 N1            -0.0171     1.3232    -0.0119 N.ar    
   2 C2             0.0017    -0.0035    -0.0051 C.ar    
   3 N3             1.1298    -0.6949    -0.0118 N.ar    
   4 C4             2.3050    -0.0728    -0.0262 C.ar    
   5 C5             2.3189     1.3366    -0.0341 C.ar    
   6 C6             1.1072     2.0202    -0.0261 C.ar    
   7 N7             3.6031    -0.5195    -0.0358 N.pl3   
   8 C8             4.4823     0.5495    -0.0498 C.ar    
   9 C9             3.7312     1.7385    -0.0494 C.ar    
  10 C10            5.8680     0.6418    -0.0632 C.ar    
  11 N11            6.4613     1.8181    -0.0753 N.ar    
  12 C12            5.7850     2.9533    -0.0752 C.ar    
  13 C13            4.4064     2.9585    -0.0621 C.ar    
  14 N14           -1.2019    -0.6887     0.0098 N.pl3   
  15 C15           -2.4019     0.0120     0.1303 C.ar    
  16 C16            4.0018    -1.9292    -0.0312 C.3     
  17 C17            3.4004    -2.6445     1.1962 C.3     
  18 C18            3.4384    -2.6403    -1.2741 C.3     
  19 C19            2.5144    -3.7629    -0.7586 C.3     
  20 C20            2.1010    -3.2939     0.6586 C.3     
  21 N21           -2.3783     1.3196     0.3309 N.ar    
  22 C22           -3.4885     2.0229     0.4509 C.ar    
  23 C23           -4.7291     1.4087     0.3703 C.ar    
  24 C24           -4.7935     0.0321     0.1596 C.ar    
  25 C25           -3.6094    -0.6709     0.0326 C.ar    
  26 N26           -5.9023     2.1615     0.4995 N.3     
  27 C27           -6.7525     1.6312     1.5738 C.3     
  28 C28           -8.0985     2.3636     1.5640 C.3     
  29 C29           -5.5954     3.5818     0.7147 C.3     
  30 C30           -6.8940     4.3941     0.6697 C.3     
  31 N31           -7.8436     3.8106     1.6295 N.am    
  32 C32           -8.4640     4.5816     2.5445 C.2     
  33 O33           -8.2421     5.7733     2.5839 O.2     
  34 C34           -9.4333     3.9629     3.5185 C.3     
  35 O35           -9.9554     4.9766     4.3797 O.3     
  36 H36            1.0848     3.1000    -0.0322 H       
  37 H37            6.4645    -0.2585    -0.0634 H       
  38 H38            6.3203     3.8912    -0.0851 H       
  39 H39            3.8597     3.8899    -0.0625 H       
  40 H40           -1.2103    -1.6559    -0.0635 H       
  41 H41            5.0887    -2.0095    -0.0157 H       
  42 H42            4.0843    -3.4087     1.5654 H       
  43 H43            3.1704    -1.9252     1.9822 H       
  44 H44            2.8684    -1.9365    -1.8806 H       
  45 H45            4.2519    -3.0664    -1.8613 H       
  46 H46            1.6378    -3.8597    -1.3991 H       
  47 H47            3.0552    -4.7077    -0.7051 H       
  48 H48            1.8091    -4.1429     1.2766 H       
  49 H49            1.2968    -2.5602     0.6034 H       
  50 H50           -3.4301     3.0889     0.6140 H       
  51 H51           -5.7459    -0.4729     0.0926 H       
  52 H52           -3.6221    -1.7382    -0.1317 H       
  53 H53           -6.9170     0.5655     1.4149 H       
  54 H54           -6.2619     1.7846     2.5350 H       
  55 H55           -8.6369     2.1278     0.6460 H       
  56 H56           -8.6888     2.0563     2.4272 H       
  57 H57           -5.1210     3.7080     1.6879 H       
  58 H58           -4.9209     3.9307    -0.0672 H       
  59 H59           -6.6880     5.4293     0.9417 H       
  60 H60           -7.3167     4.3535    -0.3342 H       
  61 H61          -10.2510     3.4955     2.9699 H       
  62 H62           -8.9183     3.2095     4.1146 H       
  63 H63          -10.5877     4.6494     5.0341 H       
@<TRIPOS>BOND
   1    1    2 ar
   2    1    6 ar
   3    2    3 ar
   4    2   14 1
   5    3    4 ar
   6    4    5 ar
   7    4    7 1
   8    5    6 ar
   9    5    9 1
  10    6   36 1
  11    7    8 1
  12    7   16 1
  13    8    9 ar
  14    8   10 ar
  15    9   13 ar
  16   10   11 ar
  17   10   37 1
  18   11   12 ar
  19   12   13 ar
  20   12   38 1
  21   13   39 1
  22   14   15 1
  23   14   40 1
  24   15   21 ar
  25   15   25 ar
  26   16   18 1
  27   16   17 1
  28   16   41 1
  29   17   20 1
  30   17   42 1
  31   17   43 1
  32   18   19 1
  33   18   44 1
  34   18   45 1
  35   19   20 1
  36   19   46 1
  37   19   47 1
  38   20   48 1
  39   20   49 1
  40   21   22 ar
  41   22   23 ar
  42   22   50 1
  43   23   24 ar
  44   23   26 1
  45   24   25 ar
  46   24   51 1
  47   25   52 1
  48   26   29 1
  49   26   27 1
  50   27   28 1
  51   27   53 1
  52   27   54 1
  53   28   31 1
  54   28   55 1
  55   28   56 1
  56   29   30 1
  57   29   57 1
  58   29   58 1
  59   30   31 1
  60   30   59 1
  61   30   60 1
  62   31   32 am
  63   32   33 2
  64   32   34 1
  65   34   35 1
  66   34   61 1
  67   34   62 1
  68   35   63 1

#	End of record

