#	Name: ASD01900553
#	Creating user name:	WinNT
#	Creation time:	15. 06. 2019 19:52

#	Modifying user name:	WinNT
#	Modification time:	15. 06. 2019 19:52

#	Program:	/corina/corina34_cracker 3.40 0067  02.08.2006

@<TRIPOS>MOLECULE
ASD01900553
  44   47    0    0    0
SMALL
NO_CHARGES


@<TRIPOS>ATOM
   1 C1             0.9850     3.1569     0.7507 C.ar    
   2 C2             2.0487     3.6068     1.5302 C.ar    
   3 C3             3.2477     2.9129     1.4977 C.ar    
   4 C4             3.3417     1.7926     0.6865 C.ar    
   5 C5             2.2432     1.4021    -0.0622 C.ar    
   6 N6             1.1166     2.0791    -0.0127 N.ar    
   7 C7            -0.3053     3.8839     0.7789 C.2     
   8 O8            -0.4328     4.8684     1.4799 O.2     
   9 N9            -1.3378     3.4535     0.0271 N.am    
  10 C10           -2.5849     4.0804     0.1267 C.ar    
  11 C11           -2.6583     5.4515     0.3376 C.ar    
  12 C12           -3.8894     6.0698     0.4354 C.ar    
  13 C13           -5.0541     5.3200     0.3227 C.ar    
  14 C14           -4.9801     3.9503     0.1121 C.ar    
  15 C15           -3.7494     3.3328     0.0090 C.ar    
  16 N16           -8.1508     6.7496     1.3918 N.am    
  17 C17           -6.9738     6.1168     1.5708 C.2     
  18 N18           -6.3054     5.9481     0.4225 N.am    
  19 C19           -6.9850     6.4578    -0.6274 C.2     
  20 C20           -8.2549     7.0220    -0.0430 C.3     
  21 C21           -9.4904     6.3537    -0.6509 C.3     
  22 C22          -10.3309     7.4877    -1.2789 C.3     
  23 C23           -9.3057     8.6189    -1.5449 C.3     
  24 C24           -8.3650     8.5281    -0.3153 C.3     
  25 O25           -6.6457     6.4616    -1.7913 O.2     
  26 O26           -6.5653     5.7418     2.6523 O.2     
  27 Cl27          -3.9820     7.7831     0.6994 Cl      
  28 H28            1.9403     4.4842     2.1506 H       
  29 H29            4.0900     3.2376     2.0905 H       
  30 H30            4.2622     1.2299     0.6384 H       
  31 H31            2.3129     0.5298    -0.6952 H       
  32 H32           -1.2164     2.7092    -0.5830 H       
  33 H33           -1.7530     6.0337     0.4254 H       
  34 H34           -5.8853     3.3679     0.0246 H       
  35 H35           -3.6923     2.2675    -0.1593 H       
  36 H36           -8.8003     6.9754     2.0760 H       
  37 H37           -9.1907     5.6404    -1.4187 H       
  38 H38          -10.0639     5.8490     0.1265 H       
  39 H39          -10.7826     7.1550    -2.2134 H       
  40 H40          -11.0982     7.8246    -0.5819 H       
  41 H41           -8.7550     8.4318    -2.4667 H       
  42 H42           -9.8017     9.5888    -1.5805 H       
  43 H43           -8.8044     9.0401     0.5408 H       
  44 H44           -7.3864     8.9464    -0.5510 H       
@<TRIPOS>BOND
   1    1    2 ar
   2    1    6 ar
   3    1    7 1
   4    2    3 ar
   5    2   28 1
   6    3    4 ar
   7    3   29 1
   8    4    5 ar
   9    4   30 1
  10    5    6 ar
  11    5   31 1
  12    7    8 2
  13    7    9 am
  14    9   10 1
  15    9   32 1
  16   10   11 ar
  17   10   15 ar
  18   11   12 ar
  19   11   33 1
  20   12   13 ar
  21   12   27 1
  22   13   14 ar
  23   13   18 1
  24   14   15 ar
  25   14   34 1
  26   15   35 1
  27   16   17 am
  28   16   20 1
  29   16   36 1
  30   17   18 am
  31   17   26 2
  32   18   19 am
  33   19   20 1
  34   19   25 2
  35   20   21 1
  36   20   24 1
  37   21   22 1
  38   21   37 1
  39   21   38 1
  40   22   23 1
  41   22   39 1
  42   22   40 1
  43   23   24 1
  44   23   41 1
  45   23   42 1
  46   24   43 1
  47   24   44 1

#	End of record

