#	Name: ASD08178328
#	Creating user name:	WinNT
#	Creation time:	15. 06. 2019 21:18

#	Modifying user name:	WinNT
#	Modification time:	15. 06. 2019 21:18

#	Program:	/corina/corina34_cracker 3.40 0067  02.08.2006

@<TRIPOS>MOLECULE
ASD08178328
  59   62    0    0    0
SMALL
NO_CHARGES


@<TRIPOS>ATOM
   1 C1            -0.0155     1.2947     0.0092 C.2     
   2 N2             0.0021    -0.0041     0.0020 N.2     
   3 N3            -1.1080    -0.6053     0.0094 N.2     
   4 C4            -2.1692     0.1372     0.0235 C.2     
   5 S5            -1.6454     1.8216     0.0350 S.3     
   6 C6            -3.5951    -0.3504     0.0340 C.3     
   7 C7            -7.4073    -1.6780     2.9473 C.2     
   8 N8            -7.7918    -2.9148     2.9447 N.2     
   9 N9            -9.0376    -3.1191     2.9550 N.2     
  10 C10           -9.8187    -2.0813     2.9671 C.2     
  11 S11           -8.8524    -0.6668     2.9729 S.3     
  12 N12          -11.2091    -2.1133     2.9791 N.am    
  13 C13          -11.8559    -3.2957     2.9793 C.2     
  14 C14          -13.3625    -3.3304     2.9924 C.3     
  15 O15          -11.2256    -4.3318     2.9690 O.2     
  16 C16          -13.8320    -4.7624     2.9898 C.ar    
  17 C17          -14.0369    -5.4247     4.1858 C.ar    
  18 C18          -14.4676    -6.7382     4.1835 C.ar    
  19 C19          -14.6938    -7.3893     2.9852 C.ar    
  20 C20          -14.4898    -6.7267     1.7893 C.ar    
  21 C21          -14.0633    -5.4118     1.7917 C.ar    
  22 N22            1.1034     2.1206     0.0029 N.am    
  23 C23            2.3386     1.5818    -0.0123 C.2     
  24 O24            2.4745     0.3766    -0.0205 O.2     
  25 C25            3.5511     2.4767    -0.0190 C.3     
  26 C26            3.6113     3.2508     1.2726 C.ar    
  27 C27            3.0797     4.5249     1.3400 C.ar    
  28 C28            3.1342     5.2355     2.5247 C.ar    
  29 C29            3.7206     4.6724     3.6422 C.ar    
  30 C30            4.2529     3.3969     3.5754 C.ar    
  31 C31            4.1930     2.6842     2.3913 C.ar    
  32 C32           -4.0644    -0.5229     1.4800 C.3     
  33 C33           -5.5121    -1.0179     1.4907 C.3     
  34 C34           -5.9814    -1.1905     2.9367 C.3     
  35 O35            4.7301     1.6805    -0.1526 O.3     
  36 Cl36           4.9902     2.6890     4.9786 Cl      
  37 H37           -4.2315     0.3769    -0.4702 H       
  38 H38           -3.6557    -1.3073    -0.4843 H       
  39 H39          -11.7132    -1.2847     2.9874 H       
  40 H40          -13.7297    -2.8292     3.8879 H       
  41 H41          -13.7453    -2.8210     2.1080 H       
  42 H42          -13.8602    -4.9160     5.1219 H       
  43 H43          -14.6269    -7.2559     5.1178 H       
  44 H44          -15.0296    -8.4158     2.9834 H       
  45 H45          -14.6662    -7.2355     0.8531 H       
  46 H46          -13.9039    -4.8941     0.8573 H       
  47 H47            0.9948     3.0845     0.0095 H       
  48 H48            3.4851     3.1715    -0.8563 H       
  49 H49            2.6220     4.9657     0.4667 H       
  50 H50            2.7187     6.2310     2.5768 H       
  51 H51            3.7637     5.2278     4.5674 H       
  52 H52            4.6084     1.6887     2.3385 H       
  53 H53           -3.4280    -1.2502     1.9842 H       
  54 H54           -4.0038     0.4340     1.9984 H       
  55 H55           -6.1485    -0.2906     0.9865 H       
  56 H56           -5.5727    -1.9748     0.9724 H       
  57 H57           -5.9207    -0.2335     3.4550 H       
  58 H58           -5.3450    -1.9177     3.4409 H       
  59 H59            4.8537     1.0381     0.5596 H       
@<TRIPOS>BOND
   1    1    2 2
   2    1   22 1
   3    1    5 1
   4    2    3 1
   5    3    4 2
   6    4    5 1
   7    4    6 1
   8    6   32 1
   9    6   37 1
  10    6   38 1
  11    7    8 2
  12    7   34 1
  13    7   11 1
  14    8    9 1
  15    9   10 2
  16   10   11 1
  17   10   12 1
  18   12   13 am
  19   12   39 1
  20   13   14 1
  21   13   15 2
  22   14   16 1
  23   14   40 1
  24   14   41 1
  25   16   17 ar
  26   16   21 ar
  27   17   18 ar
  28   17   42 1
  29   18   19 ar
  30   18   43 1
  31   19   20 ar
  32   19   44 1
  33   20   21 ar
  34   20   45 1
  35   21   46 1
  36   22   23 am
  37   22   47 1
  38   23   24 2
  39   23   25 1
  40   25   26 1
  41   25   35 1
  42   25   48 1
  43   26   27 ar
  44   26   31 ar
  45   27   28 ar
  46   27   49 1
  47   28   29 ar
  48   28   50 1
  49   29   30 ar
  50   29   51 1
  51   30   31 ar
  52   30   36 1
  53   31   52 1
  54   32   33 1
  55   32   53 1
  56   32   54 1
  57   33   34 1
  58   33   55 1
  59   33   56 1
  60   34   57 1
  61   34   58 1
  62   35   59 1

#	End of record

