#	Name: ASD01880944
#	Creating user name:	WinNT
#	Creation time:	15. 06. 2019 19:41

#	Modifying user name:	WinNT
#	Modification time:	15. 06. 2019 19:41

#	Program:	/corina/corina34_cracker 3.40 0067  02.08.2006

@<TRIPOS>MOLECULE
ASD01880944
  35   37    0    0    0
SMALL
NO_CHARGES


@<TRIPOS>ATOM
   1 N1            -0.0158     1.3150     0.0093 N.ar    
   2 C2             0.0021    -0.0041     0.0020 C.ar    
   3 N3             1.1335    -0.6823    -0.0120 N.ar    
   4 C4             2.2991    -0.0558    -0.0197 C.ar    
   5 C5             2.3200     1.3299    -0.0130 C.ar    
   6 C6             1.1114     2.0081     0.0022 C.ar    
   7 C7             3.6262     2.0816    -0.0209 C.3     
   8 O8             4.0269     2.3260    -1.3706 O.3     
   9 C9             5.1914     2.9980    -1.5555 C.ar    
  10 C10            5.6401     3.2693    -2.8448 C.ar    
  11 C11            6.8175     3.9493    -3.0316 C.ar    
  12 C12            7.5725     4.3731    -1.9326 C.ar    
  13 C13            7.1175     4.0980    -0.6386 C.ar    
  14 C14            5.9310     3.4191    -0.4577 C.ar    
  15 C15            7.5690     4.3950    -4.2613 C.3     
  16 N16            8.7718     5.0832    -3.7789 N.am    
  17 C17            8.7694     5.0680    -2.4350 C.2     
  18 O18            9.6329     5.5588    -1.7336 O.2     
  19 Cl19          -1.5025    -0.8700     0.0117 Cl      
  20 Cl20           8.0417     4.6158     0.7368 Cl      
  21 C21            9.4445     7.1480    -4.9039 C.3     
  22 C22            9.8051     5.6878    -4.6233 C.3     
  23 H23            3.2218    -0.6170    -0.0309 H       
  24 H24            1.0899     3.0878     0.0075 H       
  25 H25            3.5018     3.0316     0.4989 H       
  26 H26            4.3896     1.4889     0.4831 H       
  27 H27            5.0623     2.9447    -3.6976 H       
  28 H28            5.5795     3.2070     0.5412 H       
  29 H29            7.8480     3.5305    -4.8638 H       
  30 H30            6.9557     5.0790    -4.8478 H       
  31 H31            9.3794     7.6935    -3.9625 H       
  32 H32           10.2133     7.5978    -5.5322 H       
  33 H33            8.4838     7.1928    -5.4170 H       
  34 H34           10.7658     5.6430    -4.1103 H       
  35 H35            9.8702     5.1423    -5.5647 H       
@<TRIPOS>BOND
   1    1    2 ar
   2    1    6 ar
   3    2    3 ar
   4    2   19 1
   5    3    4 ar
   6    4    5 ar
   7    4   23 1
   8    5    6 ar
   9    5    7 1
  10    6   24 1
  11    7    8 1
  12    7   25 1
  13    7   26 1
  14    8    9 1
  15    9   10 ar
  16    9   14 ar
  17   10   11 ar
  18   10   27 1
  19   11   12 ar
  20   11   15 1
  21   12   13 ar
  22   12   17 1
  23   13   14 ar
  24   13   20 1
  25   14   28 1
  26   15   16 1
  27   15   29 1
  28   15   30 1
  29   16   17 am
  30   16   22 1
  31   17   18 2
  32   21   22 1
  33   21   31 1
  34   21   32 1
  35   21   33 1
  36   22   34 1
  37   22   35 1

#	End of record

