#	Name: ASD03331835
#	Creating user name:	WinNT
#	Creation time:	15. 06. 2019 20:39

#	Modifying user name:	WinNT
#	Modification time:	15. 06. 2019 20:39

#	Program:	/corina/corina34_cracker 3.40 0067  02.08.2006

@<TRIPOS>MOLECULE
ASD03331835
  58   60    0    0    0
SMALL
NO_CHARGES


@<TRIPOS>ATOM
   1 C1             0.2635     2.0656     1.2485 C.2     
   2 N2             0.4820     0.7753     1.6146 N.pl3   
   3 C3            -0.7125     0.1447     1.6330 C.2     
   4 N4            -1.6431     0.9940     1.2926 N.2     
   5 C5            -1.0694     2.2037     1.0489 C.2     
   6 C6             1.3555     3.0953     1.1174 C.3     
   7 N7             2.5562     2.5750     1.7963 N.3     
   8 C8             2.8607     1.2053     1.3592 C.3     
   9 C9             1.8112     0.2360     1.9177 C.3     
  10 C10           -1.7677     3.4341     0.6376 C.2     
  11 O11           -1.1375     4.4573     0.4503 O.2     
  12 N12           -3.1048     3.4257     0.4688 N.am    
  13 C13           -3.7992     4.6492     0.0598 C.3     
  14 C14           -3.7549     4.7755    -1.4644 C.3     
  15 C15           -0.9342    -1.3030     1.9878 C.3     
  16 C16           -1.5416    -1.3975     3.3889 C.3     
  17 O17           -1.8264    -1.8943     1.0410 O.3     
  18 C18            3.7070     3.4632     1.5848 C.3     
  19 C19           -4.3210     3.5033    -2.0982 C.3     
  20 C20           -5.2338     4.5895     0.5174 C.2     
  21 C21           -4.5925     5.9791    -1.9009 C.3     
  22 C22           -2.3067     4.9704    -1.9181 C.3     
  23 O23           -5.7686     3.5160     0.6978 O.2     
  24 N24           -5.9225     5.7290     0.7262 N.am    
  25 C25           -7.2781     5.6748     1.2789 C.3     
  26 C26           -1.8433    -2.7944     3.9354 C.3     
  27 C27           -0.6701    -1.9897     4.4983 C.3     
  28 H28            1.5740     3.2685     0.0637 H       
  29 H29            1.0414     4.0273     1.5873 H       
  30 H30            2.8507     1.1618     0.2701 H       
  31 H31            3.8476     0.9198     1.7231 H       
  32 H32            1.9331     0.1438     2.9969 H       
  33 H33            1.9271    -0.7414     1.4492 H       
  34 H34           -3.6074     2.6096     0.6181 H       
  35 H35           -3.3097     5.5126     0.5103 H       
  36 H36            0.0187    -1.8319     1.9685 H       
  37 H37           -2.2245    -0.5925     3.6605 H       
  38 H38           -2.6961    -1.4732     1.0040 H       
  39 H39            3.4809     4.4521     1.9837 H       
  40 H40            4.5791     3.0558     2.0962 H       
  41 H41            3.9149     3.5407     0.5176 H       
  42 H42           -5.3527     3.3644    -1.7750 H       
  43 H43           -4.2895     3.5933    -3.1840 H       
  44 H44           -3.7243     2.6458    -1.7872 H       
  45 H45           -4.1673     6.8898    -1.4792 H       
  46 H46           -4.5911     6.0474    -2.9888 H       
  47 H47           -5.6158     5.8576    -1.5458 H       
  48 H48           -1.7100     4.1130    -1.6071 H       
  49 H49           -2.2752     5.0604    -3.0039 H       
  50 H50           -1.9034     5.8768    -1.4665 H       
  51 H51           -5.5206     6.5851     0.5104 H       
  52 H52           -7.9194     5.0979     0.6126 H       
  53 H53           -7.2519     5.1996     2.2595 H       
  54 H54           -7.6717     6.6866     1.3760 H       
  55 H55           -2.7244    -2.9083     4.5668 H       
  56 H56           -1.6091    -3.6461     3.2967 H       
  57 H57            0.3360    -2.3120     4.2299 H       
  58 H58           -0.7793    -1.5742     5.5000 H       
@<TRIPOS>BOND
   1    1    2 1
   2    1    6 1
   3    1    5 2
   4    2    3 1
   5    2    9 1
   6    3    4 2
   7    3   15 1
   8    4    5 1
   9    5   10 1
  10    6    7 1
  11    6   28 1
  12    6   29 1
  13    7    8 1
  14    7   18 1
  15    8    9 1
  16    8   30 1
  17    8   31 1
  18    9   32 1
  19    9   33 1
  20   10   11 2
  21   10   12 am
  22   12   13 1
  23   12   34 1
  24   13   14 1
  25   13   20 1
  26   13   35 1
  27   14   19 1
  28   14   21 1
  29   14   22 1
  30   15   16 1
  31   15   17 1
  32   15   36 1
  33   16   26 1
  34   16   27 1
  35   16   37 1
  36   17   38 1
  37   18   39 1
  38   18   40 1
  39   18   41 1
  40   19   42 1
  41   19   43 1
  42   19   44 1
  43   20   23 2
  44   20   24 am
  45   21   45 1
  46   21   46 1
  47   21   47 1
  48   22   48 1
  49   22   49 1
  50   22   50 1
  51   24   25 1
  52   24   51 1
  53   25   52 1
  54   25   53 1
  55   25   54 1
  56   26   27 1
  57   26   55 1
  58   26   56 1
  59   27   57 1
  60   27   58 1

#	End of record

