#	Name: ASD01820160
#	Creating user name:	WinNT
#	Creation time:	15. 06. 2019 19:36

#	Modifying user name:	WinNT
#	Modification time:	15. 06. 2019 19:36

#	Program:	/corina/corina34_cracker 3.40 0067  02.08.2006

@<TRIPOS>MOLECULE
ASD01820160
 118  132    0    0    0
SMALL
NO_CHARGES


@<TRIPOS>ATOM
   1 N1             0.0018     1.4718    -0.3386 N.3     
   2 C2             0.0186     0.0604    -0.4212 C.3     
   3 C3             1.0818    -0.7650     0.2909 C.3     
   4 C4             2.3235     0.0492     0.6669 C.3     
   5 N5             3.1487     0.1912    -0.5284 N.3     
   6 C6             2.7813     0.9174    -1.6813 C.3     
   7 C7             1.9453     2.1844    -1.5903 C.3     
   8 C8             1.1897     2.3190    -0.2626 C.3     
   9 C9             3.2852    -0.8309     1.5131 C.3     
  10 C10            3.9420    -1.6892     0.5028 C.ar    
  11 C11            3.8274    -1.0036    -0.7273 C.ar    
  12 C12            4.5760    -2.9106     0.5919 C.ar    
  13 C13            5.1034    -3.4523    -0.5743 C.ar    
  14 C14            4.9943    -2.7897    -1.7802 C.ar    
  15 C15            4.3590    -1.5613    -1.8863 C.ar    
  16 C16            2.9037     3.3644    -1.7694 C.3     
  17 C17            2.1572     4.6913    -1.8209 C.3     
  18 C18            1.4246     4.8638    -0.5148 C.3     
  19 C19            0.4906     3.7039    -0.2149 C.3     
  20 C20           -0.6873     3.5232    -1.0880 C.ar    
  21 C21           -0.9530     2.1362    -1.0957 C.ar    
  22 C22           -1.4699     4.4101    -1.7999 C.ar    
  23 C23           -2.5459     3.8941    -2.5115 C.ar    
  24 C24           -2.8228     2.5420    -2.5101 C.ar    
  25 C25           -2.0389     1.6367    -1.8100 C.ar    
  26 C26            0.1030     4.0454     1.2473 C.3     
  27 C27            3.8044     3.3614    -0.5511 C.2     
  28 N28            2.2945     4.9773     0.6634 N.4     
  29 C29            3.4656     4.1137     0.6805 C.3     
  30 C30            1.4614     4.5216     1.8264 C.3     
  31 H31            0.8255     5.7721    -0.5735 H       
  32 H32            1.8346     2.2344     0.6023 H       
  33 H33            1.2198     2.2016    -2.4147 H       
  34 H34            3.4935     3.2407    -2.6758 H       
  35 O35            3.9564     1.1582    -2.4886 O.3     
  36 C36            4.8459     2.5720    -0.6513 C.2     
  37 C37            5.0644     1.7280    -1.8377 C.3     
  38 H38            2.1753     0.2078    -2.2864 H       
  39 H39            2.0893     0.9359     1.2461 H       
  40 O40           -1.2923    -0.4437    -0.0673 O.3     
  41 C41            2.6098    -1.5277     2.6782 C.3     
  42 C42            0.4404    -1.3474     1.5516 C.3     
  43 C43            1.3879    -2.3075     2.2597 C.3     
  44 H44            1.3831    -1.6008    -0.3571 H       
  45 C45            0.1609    -0.1784     2.4726 C.2     
  46 C46            1.0845     0.2040     3.5662 C.3     
  47 N47            2.3610    -0.4820     3.6758 N.4     
  48 C48            4.2759     0.0946     2.2618 C.3     
  49 C49            3.4233     0.5510     3.4731 C.3     
  50 H50            3.3267    -2.2295     3.1091 H       
  51 H51           -0.4857    -1.8635     1.3050 H       
  52 C52           -0.9506     0.4639     2.2151 C.2     
  53 C53           -1.8501     0.0811     1.1146 C.3     
  54 H54            0.1253    -0.1721    -1.4977 H       
  55 C55            2.6938     6.3749     0.8617 C.3     
  56 C56            2.4929    -1.0547     5.0274 C.3     
  57 C57            1.4640     7.2425     0.9397 C.ar    
  58 C58            0.8474     7.4596     2.1577 C.ar    
  59 C59           -0.2807     8.2553     2.2291 C.ar    
  60 C60           -0.7918     8.8344     1.0827 C.ar    
  61 C61           -0.1746     8.6181    -0.1351 C.ar    
  62 C62            0.9560     7.8258    -0.2060 C.ar    
  63 C63            2.2376     0.0181     6.0546 C.ar    
  64 C64            0.9553     0.2353     6.5231 C.ar    
  65 C65            0.7212     1.2193     7.4652 C.ar    
  66 C66            1.7693     1.9858     7.9393 C.ar    
  67 C67            3.0517     1.7680     7.4715 C.ar    
  68 C68            3.2866     0.7811     6.5325 C.ar    
  69 C69           -2.0222     9.7011     1.1605 C.3     
  70 F70           -1.6435    11.0296     1.3816 F       
  71 F71           -2.7319     9.6124    -0.0419 F       
  72 F72           -2.8333     9.2660     2.2140 F       
  73 C73            1.5138     3.0593     8.9657 C.3     
  74 F74            1.6379     2.5163    10.2491 F       
  75 F75            2.4451     4.0906     8.8036 F       
  76 F76            0.2213     3.5674     8.7973 F       
  77 H77            4.6598    -3.4226     1.5392 H       
  78 H78            5.6107    -4.4052    -0.5329 H       
  79 H79            5.4191    -3.2381    -2.6656 H       
  80 H80            4.2793    -1.0578    -2.8380 H       
  81 H81            2.8629     5.5096    -1.9644 H       
  82 H82            1.4410     4.6791    -2.6439 H       
  83 H83           -1.2503     5.4678    -1.7980 H       
  84 H84           -3.1796     4.5660    -3.0713 H       
  85 H85           -3.6743     2.1794    -3.0660 H       
  86 H86           -2.2646     0.5811    -1.8220 H       
  87 H87           -0.6290     4.8503     1.2722 H       
  88 H88           -0.2536     3.1616     1.7699 H       
  89 H89            3.3704     3.3957     1.4905 H       
  90 H90            4.3263     4.7452     0.9209 H       
  91 H91            1.2921     5.3629     2.5023 H       
  92 H92            1.9439     3.7116     2.3608 H       
  93 H93            5.5616     2.5308     0.1513 H       
  94 H94            5.7287     0.9162    -1.5427 H       
  95 H95            5.6033     2.3298    -2.5692 H       
  96 H96            1.6785    -3.1068     1.5774 H       
  97 H97            0.8997    -2.7327     3.1357 H       
  98 H98            1.2669     1.2741     3.4837 H       
  99 H99            0.5515     0.0518     4.5089 H       
 100 H100           5.1478    -0.4666     2.5945 H       
 101 H101           4.5607     0.9418     1.6440 H       
 102 H102           2.9877     1.5262     3.2733 H       
 103 H103           4.0566     0.6073     4.3614 H       
 104 H104          -1.2198     1.3101     2.8257 H       
 105 H105          -2.4350     0.9592     0.8448 H       
 106 H106          -2.5489    -0.6596     1.5059 H       
 107 H107           3.2599     6.4629     1.7890 H       
 108 H108           3.3138     6.6978     0.0254 H       
 109 H109           1.7678    -1.8586     5.1538 H       
 110 H110           3.5003    -1.4501     5.1577 H       
 111 H111           1.2467     7.0072     3.0533 H       
 112 H112          -0.7629     8.4244     3.1806 H       
 113 H113          -0.5742     9.0702    -1.0309 H       
 114 H114           1.4382     7.6568    -1.1574 H       
 115 H115           0.1364    -0.3635     6.1527 H       
 116 H116          -0.2808     1.3895     7.8307 H       
 117 H117           3.8706     2.3671     7.8416 H       
 118 H118           4.2885     0.6108     6.1671 H       
@<TRIPOS>BOND
   1    1    2 1
   2    1    8 1
   3    1   21 1
   4    2    3 1
   5    2   40 1
   6    2   54 1
   7    3    4 1
   8    3   44 1
   9    3   42 1
  10    4    5 1
  11    4    9 1
  12    4   39 1
  13    5    6 1
  14    5   11 1
  15    6    7 1
  16    6   35 1
  17    6   38 1
  18    7    8 1
  19    7   33 1
  20    7   16 1
  21    8   19 1
  22    8   32 1
  23    9   10 1
  24    9   41 1
  25    9   48 1
  26   10   11 ar
  27   10   12 ar
  28   11   15 ar
  29   12   13 ar
  30   12   77 1
  31   13   14 ar
  32   13   78 1
  33   14   15 ar
  34   14   79 1
  35   15   80 1
  36   16   17 1
  37   16   27 1
  38   16   34 1
  39   17   18 1
  40   17   81 1
  41   17   82 1
  42   18   19 1
  43   18   28 1
  44   18   31 1
  45   19   20 1
  46   19   26 1
  47   20   21 ar
  48   20   22 ar
  49   21   25 ar
  50   22   23 ar
  51   22   83 1
  52   23   24 ar
  53   23   84 1
  54   24   25 ar
  55   24   85 1
  56   25   86 1
  57   26   30 1
  58   26   87 1
  59   26   88 1
  60   27   36 2
  61   27   29 1
  62   28   29 1
  63   28   55 1
  64   28   30 1
  65   29   89 1
  66   29   90 1
  67   30   91 1
  68   30   92 1
  69   35   37 1
  70   36   37 1
  71   36   93 1
  72   37   94 1
  73   37   95 1
  74   40   53 1
  75   41   47 1
  76   41   50 1
  77   41   43 1
  78   42   43 1
  79   42   45 1
  80   42   51 1
  81   43   96 1
  82   43   97 1
  83   45   46 1
  84   45   52 2
  85   46   47 1
  86   46   98 1
  87   46   99 1
  88   47   56 1
  89   47   49 1
  90   48   49 1
  91   48  100 1
  92   48  101 1
  93   49  102 1
  94   49  103 1
  95   52   53 1
  96   52  104 1
  97   53  105 1
  98   53  106 1
  99   55   57 1
 100   55  107 1
 101   55  108 1
 102   56   63 1
 103   56  109 1
 104   56  110 1
 105   57   58 ar
 106   57   62 ar
 107   58   59 ar
 108   58  111 1
 109   59   60 ar
 110   59  112 1
 111   60   61 ar
 112   60   69 1
 113   61   62 ar
 114   61  113 1
 115   62  114 1
 116   63   64 ar
 117   63   68 ar
 118   64   65 ar
 119   64  115 1
 120   65   66 ar
 121   65  116 1
 122   66   67 ar
 123   66   73 1
 124   67   68 ar
 125   67  117 1
 126   68  118 1
 127   69   70 1
 128   69   71 1
 129   69   72 1
 130   73   74 1
 131   73   75 1
 132   73   76 1

#	End of record

