#	Name: ASD03331850
#	Creating user name:	WinNT
#	Creation time:	15. 06. 2019 20:40

#	Modifying user name:	WinNT
#	Modification time:	15. 06. 2019 20:40

#	Program:	/corina/corina34_cracker 3.40 0067  02.08.2006

@<TRIPOS>MOLECULE
ASD03331850
  44   46    0    0    0
SMALL
NO_CHARGES


@<TRIPOS>ATOM
   1 C1             1.1644    -0.4236    -1.2314 C.ar    
   2 C2             0.6529     0.0115    -2.4409 C.ar    
   3 C3             1.1631     1.1481    -3.0420 C.ar    
   4 C4             2.1852     1.8519    -2.4358 C.ar    
   5 C5             2.7006     1.4176    -1.2217 C.ar    
   6 C6             2.1864     0.2762    -0.6206 C.ar    
   7 N7             3.7367     2.1285    -0.6053 N.am    
   8 C8             3.7762     3.4729    -0.6922 C.2     
   9 N9             4.7205     4.1640    -0.0235 N.am    
  10 O10            2.9599     4.0623    -1.3739 O.2     
  11 C11            4.8223     5.5500    -0.1892 C.ar    
  12 C12            3.7724     7.6838    -0.5299 C.ar    
  13 C13            3.6760     6.3147    -0.3654 C.ar    
  14 C14            6.0671     6.1609    -0.1719 C.ar    
  15 C15            6.1634     7.5402    -0.3372 C.ar    
  16 C16            5.0079     8.2991    -0.5192 C.ar    
  17 C17            7.4914     8.2004    -0.3193 C.ar    
  18 C18            7.5982     9.5840    -0.4844 C.ar    
  19 C19            8.8579    10.1552    -0.4606 C.ar    
  20 N20            9.9169     9.3809    -0.2836 N.ar    
  21 C21            9.7861     8.0713    -0.1296 C.ar    
  22 N22            8.5993     7.4849    -0.1404 N.ar    
  23 I23           -0.8970    -1.0535    -3.3643 I       
  24 N24           10.9190     7.2973     0.0525 N.pl3   
  25 C25           12.2413     7.9277     0.0732 C.3     
  26 C26           10.7959     5.8477     0.2246 C.3     
  27 H27            0.7611    -1.3088    -0.7622 H       
  28 H28            0.7621     1.4852    -3.9864 H       
  29 H29            2.5834     2.7391    -2.9058 H       
  30 H30            2.5851    -0.0636     0.3238 H       
  31 H31            4.4263     1.6537    -0.1155 H       
  32 H32            5.3295     3.7008     0.5727 H       
  33 H33            2.8783     8.2739    -0.6668 H       
  34 H34            2.7068     5.8382    -0.3742 H       
  35 H35            6.9592     5.5688    -0.0303 H       
  36 H36            5.0794     9.3690    -0.6480 H       
  37 H37            6.7179    10.1930    -0.6276 H       
  38 H38            8.9761    11.2215    -0.5855 H       
  39 H39           12.4927     8.2113     1.0952 H       
  40 H40           12.9849     7.2247    -0.3022 H       
  41 H41           12.2301     8.8162    -0.5581 H       
  42 H42           10.3211     5.4162    -0.6565 H       
  43 H43           11.7865     5.4117     0.3537 H       
  44 H44           10.1885     5.6365     1.1047 H       
@<TRIPOS>BOND
   1    1    2 ar
   2    1    6 ar
   3    1   27 1
   4    2    3 ar
   5    2   23 1
   6    3    4 ar
   7    3   28 1
   8    4    5 ar
   9    4   29 1
  10    5    6 ar
  11    5    7 1
  12    6   30 1
  13    7    8 am
  14    7   31 1
  15    8    9 am
  16    8   10 2
  17    9   11 1
  18    9   32 1
  19   11   14 ar
  20   11   13 ar
  21   12   13 ar
  22   12   16 ar
  23   12   33 1
  24   13   34 1
  25   14   15 ar
  26   14   35 1
  27   15   16 ar
  28   15   17 1
  29   16   36 1
  30   17   18 ar
  31   17   22 ar
  32   18   19 ar
  33   18   37 1
  34   19   20 ar
  35   19   38 1
  36   20   21 ar
  37   21   22 ar
  38   21   24 1
  39   24   25 1
  40   24   26 1
  41   25   39 1
  42   25   40 1
  43   25   41 1
  44   26   42 1
  45   26   43 1
  46   26   44 1

#	End of record

