#	Name: ASD02610043
#	Creating user name:	WinNT
#	Creation time:	15. 06. 2019 20:25

#	Modifying user name:	WinNT
#	Modification time:	15. 06. 2019 20:25

#	Program:	/corina/corina34_cracker 3.40 0067  02.08.2006

@<TRIPOS>MOLECULE
ASD02610043
 124  126    0    0    0
SMALL
NO_CHARGES


@<TRIPOS>ATOM
   1 C1             0.2202     1.0565    -0.3106 C.3     
   2 C2             0.5019    -0.4215    -0.5238 C.2     
   3 C3             1.9475    -0.5739    -0.6790 C.2     
   4 C4             2.5904     0.5781    -0.5481 C.2     
   5 C5             1.6100     1.6615    -0.1874 C.3     
   6 C6             4.0476     0.8528    -0.8297 C.3     
   7 C7             4.5516     1.9320     0.1111 C.3     
   8 C8             4.2840     3.3307    -0.3541 C.3     
   9 C9             2.9025     3.8136    -0.0108 C.3     
  10 C10            1.8388     3.0020    -0.7547 C.3     
  11 O11           -0.3217    -1.3116    -0.5584 O.2     
  12 C12            2.6287    -1.8895    -0.9552 C.3     
  13 O13           -0.5385     1.2627     0.9101 O.3     
  14 H14            1.7472     1.7962     0.8855 H       
  15 O15            0.5878     3.7384    -0.7234 O.3     
  16 C16            2.2736     2.8475    -2.2134 C.3     
  17 O17            4.4521     3.3833    -1.7954 O.3     
  18 O18            4.8900    -0.2982    -0.5423 O.3     
  19 C19            6.1266     0.1441    -0.2324 C.2     
  20 C20            6.0503     1.5933     0.2195 C.3     
  21 O21            3.9409     1.7564     1.3910 O.3     
  22 C22           -1.8764     1.2737     0.8015 C.2     
  23 C23           -2.7300     1.4825     2.0257 C.3     
  24 C24           -4.2073     1.4514     1.6288 C.3     
  25 C25           -5.0740     1.6634     2.8717 C.3     
  26 C26           -6.5512     1.6323     2.4747 C.3     
  27 C27           -7.4179     1.8442     3.7176 C.3     
  28 O28           -2.3962     1.1163    -0.2778 O.2     
  29 O29            6.8183     2.4306    -0.6471 O.3     
  30 C30           -8.8952     1.8132     3.3206 C.3     
  31 C31           -9.7618     2.0251     4.5636 C.3     
  32 C32            6.5294     1.7313     1.6661 C.3     
  33 C33            0.0819     4.0293     0.4854 C.2     
  34 C34           -1.1980     4.8170     0.5969 C.3     
  35 O35            0.6528     3.6597     1.4841 O.2     
  36 H36            4.1731     1.1721    -1.8643 H       
  37 O37            7.1391    -0.5114    -0.3028 O.2     
  38 C38            4.8647     4.5485    -2.3186 C.2     
  39 C39            5.0614     4.6785    -3.8071 C.3     
  40 O40            5.0783     5.4932    -1.5963 O.2     
  41 C41            5.5312     6.0965    -4.1375 C.3     
  42 C42            5.7310     6.2285    -5.6487 C.3     
  43 C43            6.2008     7.6465    -5.9792 C.3     
  44 C44            6.4005     7.7784    -7.4903 C.3     
  45 C45            6.8704     9.1965    -7.8208 C.3     
  46 C46            7.0701     9.3284    -9.3319 C.3     
  47 C47            7.5399    10.7465    -9.6624 C.3     
  48 C48            7.7397    10.8784   -11.1736 C.3     
  49 C49            8.2095    12.2965   -11.5040 C.3     
  50 C50            8.4093    12.4284   -13.0152 C.3     
  51 N51            8.8591    13.7863   -13.3316 N.am    
  52 C52            9.1010    14.1351   -14.6108 C.2     
  53 C53            9.5637    15.5319   -14.9363 C.3     
  54 C54            9.7635    15.6638   -16.4475 C.3     
  55 C55           10.2333    17.0819   -16.7779 C.3     
  56 O56            8.9462    13.3249   -15.4999 O.2     
  57 C57           10.5477    17.1769   -18.2487 C.2     
  58 N58            9.1722    18.0402   -16.4411 N.3     
  59 O59           11.7186    16.7161   -18.7159 O.3     
  60 O60            9.7457    17.6679   -19.0074 O.2     
  61 H61           -0.3069     1.4752    -1.1679 H       
  62 H62            5.0128     3.9983     0.1057 H       
  63 H63            2.7442     3.7126     1.0629 H       
  64 H64            2.8108     4.8637    -0.2884 H       
  65 H65            1.8807    -2.6799    -1.0172 H       
  66 H66            3.1705    -1.8270    -1.8989 H       
  67 H67            3.3275    -2.1130    -0.1491 H       
  68 H68            1.4390     2.4682    -2.8031 H       
  69 H69            2.5841     3.8164    -2.6045 H       
  70 H70            3.1073     2.1479    -2.2719 H       
  71 H71            4.2132     2.4099     2.0498 H       
  72 H72           -2.5309     0.6899     2.7470 H       
  73 H73           -2.4941     2.4482     2.4728 H       
  74 H74           -4.4064     2.2440     0.9075 H       
  75 H75           -4.4431     0.4857     1.1817 H       
  76 H76           -4.8748     0.8708     3.5929 H       
  77 H77           -4.8381     2.6291     3.3187 H       
  78 H78           -6.7504     2.4249     1.7534 H       
  79 H79           -6.7871     0.6666     2.0277 H       
  80 H80           -7.2188     1.0516     4.4389 H       
  81 H81           -7.1820     2.8100     4.1647 H       
  82 H82            7.7696     2.2593    -0.6182 H       
  83 H83           -9.0943     2.6058     2.5994 H       
  84 H84           -9.1310     0.8475     2.8736 H       
  85 H85          -10.8143     2.0030     4.2807 H       
  86 H86           -9.5627     1.2325     5.2848 H       
  87 H87           -9.5260     2.9908     5.0106 H       
  88 H88            5.9659     1.0486     2.3021 H       
  89 H89            7.5904     1.4879     1.7222 H       
  90 H90            6.3732     2.7556     2.0044 H       
  91 H91           -2.0461     4.1324     0.6085 H       
  92 H92           -1.1877     5.3983     1.5189 H       
  93 H93           -1.2859     5.4900    -0.2560 H       
  94 H94            5.8118     3.9606    -4.1384 H       
  95 H95            4.1186     4.4800    -4.3169 H       
  96 H96            4.7809     6.8144    -3.8062 H       
  97 H97            6.4740     6.2950    -3.6277 H       
  98 H98            6.4813     5.5106    -5.9800 H       
  99 H99            4.7882     6.0300    -6.1585 H       
 100 H100           5.4504     8.3644    -5.6478 H       
 101 H101           7.1436     7.8450    -5.4694 H       
 102 H102           7.1509     7.0606    -7.8217 H       
 103 H103           5.4578     7.5800    -8.0001 H       
 104 H104           6.1200     9.9144    -7.4894 H       
 105 H105           7.8131     9.3950    -7.3110 H       
 106 H106           7.8205     8.6106    -9.6633 H       
 107 H107           6.1273     9.1300    -9.8418 H       
 108 H108           6.7896    11.4643    -9.3311 H       
 109 H109           8.4827    10.9450    -9.1526 H       
 110 H110           8.4900    10.1606   -11.5049 H       
 111 H111           6.7969    10.6800   -11.6834 H       
 112 H112           7.4592    13.0143   -11.1727 H       
 113 H113           9.1523    12.4950   -10.9942 H       
 114 H114           9.1596    11.7106   -13.3465 H       
 115 H115           7.4665    12.2300   -13.5250 H       
 116 H116           8.9829    14.4342   -12.6205 H       
 117 H117           8.8134    16.2497   -14.6050 H       
 118 H118          10.5065    15.7303   -14.4265 H       
 119 H119          10.5138    14.9460   -16.7788 H       
 120 H120           8.8207    15.4653   -16.9573 H       
 121 H121          11.1280    17.3122   -16.1995 H       
 122 H122           9.4814    18.9891   -16.5897 H       
 123 H123           8.3314    17.8477   -16.9647 H       
 124 H124          11.8752    16.7990   -19.6665 H       
@<TRIPOS>BOND
   1    1    2 1
   2    1    5 1
   3    1   13 1
   4    1   61 1
   5    2    3 1
   6    2   11 2
   7    3    4 2
   8    3   12 1
   9    4    5 1
  10    4    6 1
  11    5   10 1
  12    5   14 1
  13    6    7 1
  14    6   18 1
  15    6   36 1
  16    7   20 1
  17    7   21 1
  18    7    8 1
  19    8    9 1
  20    8   17 1
  21    8   62 1
  22    9   10 1
  23    9   63 1
  24    9   64 1
  25   10   15 1
  26   10   16 1
  27   12   65 1
  28   12   66 1
  29   12   67 1
  30   13   22 1
  31   15   33 1
  32   16   68 1
  33   16   69 1
  34   16   70 1
  35   17   38 1
  36   18   19 1
  37   19   20 1
  38   19   37 2
  39   20   29 1
  40   20   32 1
  41   21   71 1
  42   22   23 1
  43   22   28 2
  44   23   24 1
  45   23   72 1
  46   23   73 1
  47   24   25 1
  48   24   74 1
  49   24   75 1
  50   25   26 1
  51   25   76 1
  52   25   77 1
  53   26   27 1
  54   26   78 1
  55   26   79 1
  56   27   30 1
  57   27   80 1
  58   27   81 1
  59   29   82 1
  60   30   31 1
  61   30   83 1
  62   30   84 1
  63   31   85 1
  64   31   86 1
  65   31   87 1
  66   32   88 1
  67   32   89 1
  68   32   90 1
  69   33   34 1
  70   33   35 2
  71   34   91 1
  72   34   92 1
  73   34   93 1
  74   38   39 1
  75   38   40 2
  76   39   41 1
  77   39   94 1
  78   39   95 1
  79   41   42 1
  80   41   96 1
  81   41   97 1
  82   42   43 1
  83   42   98 1
  84   42   99 1
  85   43   44 1
  86   43  100 1
  87   43  101 1
  88   44   45 1
  89   44  102 1
  90   44  103 1
  91   45   46 1
  92   45  104 1
  93   45  105 1
  94   46   47 1
  95   46  106 1
  96   46  107 1
  97   47   48 1
  98   47  108 1
  99   47  109 1
 100   48   49 1
 101   48  110 1
 102   48  111 1
 103   49   50 1
 104   49  112 1
 105   49  113 1
 106   50   51 1
 107   50  114 1
 108   50  115 1
 109   51   52 am
 110   51  116 1
 111   52   53 1
 112   52   56 2
 113   53   54 1
 114   53  117 1
 115   53  118 1
 116   54   55 1
 117   54  119 1
 118   54  120 1
 119   55   57 1
 120   55   58 1
 121   55  121 1
 122   57   59 1
 123   57   60 2
 124   58  122 1
 125   58  123 1
 126   59  124 1

#	End of record

