#	Name: ASD06170198
#	Creating user name:	WinNT
#	Creation time:	15. 06. 2019 21:05

#	Modifying user name:	WinNT
#	Modification time:	15. 06. 2019 21:05

#	Program:	/corina/corina34_cracker 3.40 0067  02.08.2006

@<TRIPOS>MOLECULE
ASD06170198
  64   69    0    0    0
SMALL
NO_CHARGES


@<TRIPOS>ATOM
   1 C1             0.4725     0.6051     0.4074 C.2     
   2 C2            -0.1281    -0.4930    -0.2606 C.2     
   3 C3             0.4170    -0.9341    -1.4624 C.2     
   4 C4             1.5471    -0.2764    -1.9769 C.2     
   5 C5             2.0928     0.7862    -1.2883 C.2     
   6 N6             1.5544     1.2078    -0.1190 N.am    
   7 C7            -1.3104    -1.1564     0.3097 C.2     
   8 O8            -1.8956    -2.0107    -0.3287 O.2     
   9 N9            -1.7455    -0.8177     1.5395 N.am    
  10 C10            3.4377    -1.2590    -3.2830 C.ar    
  11 C11            2.1514    -0.7243    -3.2565 C.ar    
  12 C12            1.4394    -0.6168    -4.4537 C.ar    
  13 C13            2.0472    -1.0490    -5.6203 C.ar    
  14 C14            3.3274    -1.5683    -5.5636 C.ar    
  15 N15            3.9748    -1.6576    -4.4178 N.ar    
  16 C16            2.1339     2.2902     0.5541 C.ar    
  17 C17            3.1532     2.0736     1.4722 C.ar    
  18 C18            3.7228     3.1434     2.1345 C.ar    
  19 C19            3.2789     4.4290     1.8846 C.ar    
  20 C20            2.2638     4.6479     0.9713 C.ar    
  21 C21            1.6946     3.5831     0.3008 C.ar    
  22 O22            0.0041     1.0068     1.4584 O.2     
  23 C23           -2.9265    -1.3679     2.0374 C.ar    
  24 C24           -3.4391    -2.5274     1.4664 C.ar    
  25 C25           -4.6108    -3.0646     1.9679 C.ar    
  26 C26           -5.2348    -2.4182     3.0322 C.ar    
  27 C27           -4.6658    -1.2661     3.5508 C.ar    
  28 N28           -3.5438    -0.7837     3.0516 N.ar    
  29 O29           -6.3885    -2.9116     3.5558 O.3     
  30 N30           -6.1463    -4.9707     7.1210 N.ar    
  31 C31           -5.0731    -4.4226     6.6011 C.ar    
  32 C32           -5.1162    -3.7212     5.4030 C.ar    
  33 C33           -6.3168    -3.5900     4.7272 C.ar    
  34 C34           -7.4660    -4.1847     5.2960 C.ar    
  35 C35           -8.7174    -4.0945     4.6692 C.ar    
  36 C36           -9.8053    -4.6783     5.2417 C.ar    
  37 C37           -9.6923    -5.3693     6.4516 C.ar    
  38 C38           -8.4780    -5.4754     7.0912 C.ar    
  39 C39           -7.3398    -4.8827     6.5218 C.ar    
  40 O40          -10.7937    -5.9424     7.0027 O.3     
  41 C41          -12.0249    -5.7974     6.2920 C.3     
  42 H42           -0.0209    -1.7681    -1.9906 H       
  43 H43            2.9616     1.2891    -1.6866 H       
  44 H44           -1.2374    -0.1913     2.0783 H       
  45 H45            4.0010    -1.3437    -2.3655 H       
  46 H46            0.4402    -0.2073    -4.4689 H       
  47 H47            1.5268    -0.9816    -6.5642 H       
  48 H48            3.8046    -1.9064    -6.4716 H       
  49 H49            3.4998     1.0697     1.6683 H       
  50 H50            4.5155     2.9756     2.8485 H       
  51 H51            3.7257     5.2638     2.4040 H       
  52 H52            1.9189     5.6531     0.7789 H       
  53 H53            0.9055     3.7552    -0.4161 H       
  54 H54           -2.9290    -3.0024     0.6414 H       
  55 H55           -5.0322    -3.9641     1.5439 H       
  56 H56           -5.1442    -0.7593     4.3758 H       
  57 H57           -4.1306    -4.5188     7.1196 H       
  58 H58           -4.2163    -3.2804     5.0002 H       
  59 H59           -8.8176    -3.5627     3.7346 H       
  60 H60          -10.7672    -4.6065     4.7559 H       
  61 H61           -8.4014    -6.0115     8.0256 H       
  62 H62          -12.8219    -6.3003     6.8397 H       
  63 H63          -12.2644    -4.7388     6.1923 H       
  64 H64          -11.9275    -6.2427     5.3019 H       
@<TRIPOS>BOND
   1    1    2 1
   2    1    6 am
   3    1   22 2
   4    2    3 2
   5    2    7 1
   6    3    4 1
   7    3   42 1
   8    4    5 2
   9    4   11 1
  10    5    6 1
  11    5   43 1
  12    6   16 1
  13    7    8 2
  14    7    9 am
  15    9   23 1
  16    9   44 1
  17   10   11 ar
  18   10   15 ar
  19   10   45 1
  20   11   12 ar
  21   12   13 ar
  22   12   46 1
  23   13   14 ar
  24   13   47 1
  25   14   15 ar
  26   14   48 1
  27   16   17 ar
  28   16   21 ar
  29   17   18 ar
  30   17   49 1
  31   18   19 ar
  32   18   50 1
  33   19   20 ar
  34   19   51 1
  35   20   21 ar
  36   20   52 1
  37   21   53 1
  38   23   24 ar
  39   23   28 ar
  40   24   25 ar
  41   24   54 1
  42   25   26 ar
  43   25   55 1
  44   26   27 ar
  45   26   29 1
  46   27   28 ar
  47   27   56 1
  48   29   33 1
  49   30   31 ar
  50   30   39 ar
  51   31   32 ar
  52   31   57 1
  53   32   33 ar
  54   32   58 1
  55   33   34 ar
  56   34   35 ar
  57   34   39 ar
  58   35   36 ar
  59   35   59 1
  60   36   37 ar
  61   36   60 1
  62   37   38 ar
  63   37   40 1
  64   38   39 ar
  65   38   61 1
  66   40   41 1
  67   41   62 1
  68   41   63 1
  69   41   64 1

#	End of record

