#	Name: ASD01870478
#	Creating user name:	WinNT
#	Creation time:	15. 06. 2019 19:39

#	Modifying user name:	WinNT
#	Modification time:	15. 06. 2019 19:39

#	Program:	/corina/corina34_cracker 3.40 0067  02.08.2006

@<TRIPOS>MOLECULE
ASD01870478
  40   43    0    0    0
SMALL
NO_CHARGES


@<TRIPOS>ATOM
   1 C1            -0.0306     1.3968    -0.2326 C.ar    
   2 C2            -0.0278     0.0164    -0.1053 C.ar    
   3 C3             1.1512    -0.6622     0.1402 C.ar    
   4 C4             2.3471     0.0281     0.2620 C.ar    
   5 C5             2.3596     1.4079     0.1367 C.ar    
   6 C6             1.1572     2.1000    -0.1132 C.ar    
   7 C7             3.4143     2.4413     0.2055 C.2     
   8 N8             2.8482     3.6454     0.0068 N.am    
   9 C9             1.5221     3.5305    -0.1877 C.2     
  10 O10            0.7533     4.4485    -0.3910 O.2     
  11 O11            4.5943     2.2375     0.4081 O.2     
  12 C12            3.5487     4.8614     0.0046 C.ar    
  13 C13            4.0795     5.3544    -1.1797 C.ar    
  14 C14            4.7682     6.5507    -1.1825 C.ar    
  15 C15            4.9304     7.2620    -0.0003 C.ar    
  16 C16            4.3997     6.7694     1.1847 C.ar    
  17 C17            3.7059     5.5747     1.1864 C.ar    
  18 Cl18           3.0359     4.9618     2.6660 Cl      
  19 N19            5.6291     8.4745    -0.0034 N.am    
  20 C20            6.4004     8.8106     1.0495 C.2     
  21 C21            7.2161    10.0370     1.0037 C.2     
  22 O22            6.4232     8.1016     2.0375 O.2     
  23 N23            8.0373    10.4898     1.9981 N.pl3   
  24 C24            8.5999    11.6453     1.5545 C.2     
  25 C25            8.1146    11.8719     0.3091 C.2     
  26 N26            7.2831    10.8810    -0.0040 N.2     
  27 C27            8.2672     9.8512     3.2964 C.3     
  28 H28           -0.9541     1.9214    -0.4284 H       
  29 H29           -0.9532    -0.5326    -0.1982 H       
  30 H30            1.1404    -1.7377     0.2381 H       
  31 H31            3.2651    -0.5074     0.4542 H       
  32 H32            3.9540     4.8016    -2.0990 H       
  33 H33            5.1813     6.9337    -2.1040 H       
  34 H34            4.5257     7.3222     2.1039 H       
  35 H35            5.5582     9.0732    -0.7634 H       
  36 H36            9.3010    12.2659     2.0929 H       
  37 H37            8.3635    12.7115    -0.3229 H       
  38 H38            9.1049     9.1583     3.2172 H       
  39 H39            8.4956    10.6138     4.0410 H       
  40 H40            7.3722     9.3065     3.5969 H       
@<TRIPOS>BOND
   1    1    2 ar
   2    1    6 ar
   3    1   28 1
   4    2    3 ar
   5    2   29 1
   6    3    4 ar
   7    3   30 1
   8    4    5 ar
   9    4   31 1
  10    5    7 1
  11    5    6 ar
  12    6    9 1
  13    7    8 am
  14    7   11 2
  15    8    9 am
  16    8   12 1
  17    9   10 2
  18   12   13 ar
  19   12   17 ar
  20   13   14 ar
  21   13   32 1
  22   14   15 ar
  23   14   33 1
  24   15   16 ar
  25   15   19 1
  26   16   17 ar
  27   16   34 1
  28   17   18 1
  29   19   20 am
  30   19   35 1
  31   20   21 1
  32   20   22 2
  33   21   23 1
  34   21   26 2
  35   23   24 1
  36   23   27 1
  37   24   25 2
  38   24   36 1
  39   25   26 1
  40   25   37 1
  41   27   38 1
  42   27   39 1
  43   27   40 1

#	End of record

