#	Name: ASD01350040
#	Creating user name:	WinNT
#	Creation time:	15. 06. 2019 19:16

#	Modifying user name:	WinNT
#	Modification time:	15. 06. 2019 19:16

#	Program:	/corina/corina34_cracker 3.40 0067  02.08.2006

@<TRIPOS>MOLECULE
ASD01350040
  58   62    0    0    0
SMALL
NO_CHARGES


@<TRIPOS>ATOM
   1 C1            -0.0412     1.2309    -0.1408 C.ar    
   2 C2             0.0231    -0.1356     0.0561 C.ar    
   3 C3             1.2501    -0.7557     0.1915 C.ar    
   4 C4             2.4168    -0.0125     0.1311 C.ar    
   5 C5             2.3525     1.3545    -0.0659 C.ar    
   6 C6             1.1218     1.9740    -0.2018 C.ar    
   7 C7             3.8626    -0.4450     0.2487 C.3     
   8 C8             4.6831     0.7267    -0.3311 C.3     
   9 C9             3.7507     1.9336    -0.0940 C.3     
  10 C10            5.9991     0.8983     0.4303 C.3     
  11 C11            6.8571    -0.3247     0.2325 C.ar    
  12 C12            6.8880    -1.3108     1.2002 C.ar    
  13 C13            7.6745    -2.4332     1.0193 C.ar    
  14 C14            8.4310    -2.5699    -0.1308 C.ar    
  15 C15            8.4005    -1.5831    -1.1000 C.ar    
  16 C16            7.6094    -0.4628    -0.9207 C.ar    
  17 N17            3.8798     2.9009    -1.1920 N.3     
  18 Cl18           7.5699     0.7758    -2.1365 Cl      
  19 Cl19           9.4190    -3.9792    -0.3576 Cl      
  20 C20            5.2221     3.4960    -1.2139 C.3     
  21 C21            5.2751     4.5993    -2.2731 C.3     
  22 C22            4.9388     4.0022    -3.6424 C.3     
  23 C23            3.5565     3.3465    -3.5789 C.3     
  24 C24            3.5533     2.2796    -2.4818 C.3     
  25 C25            4.9307     5.0949    -4.6801 C.ar    
  26 C26            5.2697     4.8072    -5.9891 C.ar    
  27 C27            5.2625     5.8090    -6.9413 C.ar    
  28 C28            4.9158     7.0999    -6.5842 C.ar    
  29 C29            4.5766     7.3873    -5.2740 C.ar    
  30 C30            4.5787     6.3835    -4.3239 C.ar    
  31 Cl31           4.9070     8.3588    -7.7795 Cl      
  32 O32            5.9176     3.0204    -3.9887 O.3     
  33 H33           -0.9994     1.7166    -0.2512 H       
  34 H34           -0.8851    -0.7180     0.1045 H       
  35 H35            1.2995    -1.8235     0.3453 H       
  36 H36            1.0708     3.0417    -0.3561 H       
  37 H37            4.1243    -0.6092     1.2940 H       
  38 H38            4.0348    -1.3512    -0.3320 H       
  39 H39            4.8663     0.5819    -1.3958 H       
  40 H40            3.9824     2.4090     0.8591 H       
  41 H41            6.5249     1.7758     0.0539 H       
  42 H42            5.7902     1.0277     1.4923 H       
  43 H43            6.2978    -1.2044     2.0984 H       
  44 H44            7.6985    -3.2034     1.7760 H       
  45 H45            8.9912    -1.6892    -1.9978 H       
  46 H46            5.4471     3.9207    -0.2356 H       
  47 H47            5.9565     2.7270    -1.4535 H       
  48 H48            4.5506     5.3755    -2.0267 H       
  49 H49            6.2760     5.0303    -2.3000 H       
  50 H50            2.8050     4.1030    -3.3530 H       
  51 H51            3.3295     2.8824    -4.5386 H       
  52 H52            4.2955     1.5162    -2.7154 H       
  53 H53            2.5663     1.8207    -2.4244 H       
  54 H54            5.5406     3.7996    -6.2676 H       
  55 H55            5.5277     5.5842    -7.9638 H       
  56 H56            4.3058     8.3948    -4.9947 H       
  57 H57            4.3139     6.6076    -3.3011 H       
  58 H58            5.7666     2.5998    -4.8462 H       
@<TRIPOS>BOND
   1    1    2 ar
   2    1    6 ar
   3    1   33 1
   4    2    3 ar
   5    2   34 1
   6    3    4 ar
   7    3   35 1
   8    4    5 ar
   9    4    7 1
  10    5    6 ar
  11    5    9 1
  12    6   36 1
  13    7    8 1
  14    7   37 1
  15    7   38 1
  16    8    9 1
  17    8   10 1
  18    8   39 1
  19    9   17 1
  20    9   40 1
  21   10   11 1
  22   10   41 1
  23   10   42 1
  24   11   12 ar
  25   11   16 ar
  26   12   13 ar
  27   12   43 1
  28   13   14 ar
  29   13   44 1
  30   14   15 ar
  31   14   19 1
  32   15   16 ar
  33   15   45 1
  34   16   18 1
  35   17   20 1
  36   17   24 1
  37   20   21 1
  38   20   46 1
  39   20   47 1
  40   21   22 1
  41   21   48 1
  42   21   49 1
  43   22   23 1
  44   22   25 1
  45   22   32 1
  46   23   24 1
  47   23   50 1
  48   23   51 1
  49   24   52 1
  50   24   53 1
  51   25   26 ar
  52   25   30 ar
  53   26   27 ar
  54   26   54 1
  55   27   28 ar
  56   27   55 1
  57   28   29 ar
  58   28   31 1
  59   29   30 ar
  60   29   56 1
  61   30   57 1
  62   32   58 1

#	End of record

