#	Name: ASD03320240
#	Creating user name:	WinNT
#	Creation time:	15. 06. 2019 20:36

#	Modifying user name:	WinNT
#	Modification time:	15. 06. 2019 20:36

#	Program:	/corina/corina34_cracker 3.40 0067  02.08.2006

@<TRIPOS>MOLECULE
ASD03320240
  46   48    0    0    0
SMALL
NO_CHARGES


@<TRIPOS>ATOM
   1 C1            -0.2078     2.8524    -1.7944 C.3     
   2 C2           -11.3104    -0.1486    -8.7858 C.3     
   3 C3           -11.5161     0.7796    -7.5858 C.3     
   4 C4            -4.6190     0.6247    -1.6450 C.ar    
   5 C5            -4.1666     1.8802    -2.0291 C.ar    
   6 C6            -2.8231     2.1865    -1.9405 C.ar    
   7 C7            -6.7203     0.8054    -2.7479 C.2     
   8 C8            -8.1321     0.3951    -2.9005 C.ar    
   9 C9            -8.8984     0.8979    -3.9531 C.ar    
  10 C10          -10.2155     0.5104    -4.0901 C.ar    
  11 C11          -10.7768    -0.3745    -3.1870 C.ar    
  12 C12          -10.0228    -0.8765    -2.1408 C.ar    
  13 C13           -8.7033    -0.5018    -1.9958 C.ar    
  14 C14          -11.0445     1.0527    -5.2257 C.3     
  15 F15            1.1757     2.9928    -1.6408 F       
  16 F16           -0.8634     3.8059    -1.0081 F       
  17 F17           -0.5494     3.0412    -3.1379 F       
  18 O18           -0.6023     1.5423    -1.3822 O.3     
  19 C19           -1.9252     1.2401    -1.4687 C.ar    
  20 C20           -2.3763    -0.0143    -1.0849 C.ar    
  21 C21           -3.7203    -0.3202    -1.1675 C.ar    
  22 N22           -5.9814     0.3137    -1.7337 N.am    
  23 O23           -6.2256     1.5865    -3.5373 O.2     
  24 N24          -10.9186     0.1667    -6.3906 N.3     
  25 C25          -11.5224    -1.1465    -6.1214 C.3     
  26 C26          -11.3167    -2.0554    -7.3361 C.3     
  27 O27          -11.8760    -1.4293    -8.4939 O.3     
  28 H28          -11.8013     0.2750    -9.6619 H       
  29 H29          -10.2440    -0.2582    -8.9834 H       
  30 H30          -11.0366     1.7388    -7.7812 H       
  31 H31          -12.5829     0.9325    -7.4226 H       
  32 H32           -4.8654     2.6169    -2.3970 H       
  33 H33           -2.4711     3.1628    -2.2395 H       
  34 H34           -8.4614     1.5891    -4.6586 H       
  35 H35          -11.8082    -0.6747    -3.2987 H       
  36 H36          -10.4671    -1.5668    -1.4390 H       
  37 H37           -8.1145    -0.8980    -1.1817 H       
  38 H38          -12.0895     1.1048    -4.9200 H       
  39 H39          -10.6927     2.0504    -5.4883 H       
  40 H40           -1.6767    -0.7505    -0.7174 H       
  41 H41           -4.0715    -1.2967    -0.8683 H       
  42 H42           -6.3934    -0.2557    -1.0651 H       
  43 H43          -11.0476    -1.5932    -5.2479 H       
  44 H44          -12.5894    -1.0250    -5.9343 H       
  45 H45          -10.2504    -2.2203    -7.4908 H       
  46 H46          -11.8121    -3.0109    -7.1638 H       
@<TRIPOS>BOND
   1    1   16 1
   2    1   15 1
   3    1   17 1
   4    1   18 1
   5    2   27 1
   6    2   28 1
   7    2   29 1
   8    2    3 1
   9    3   30 1
  10    3   31 1
  11    3   24 1
  12    4   22 1
  13    4    5 ar
  14    4   21 ar
  15    5   32 1
  16    5    6 ar
  17    6   33 1
  18    6   19 ar
  19    7    8 1
  20    7   22 am
  21    7   23 2
  22    8   13 ar
  23    8    9 ar
  24    9   10 ar
  25    9   34 1
  26   10   11 ar
  27   10   14 1
  28   11   12 ar
  29   11   35 1
  30   12   36 1
  31   12   13 ar
  32   13   37 1
  33   14   24 1
  34   14   38 1
  35   14   39 1
  36   18   19 1
  37   19   20 ar
  38   20   21 ar
  39   20   40 1
  40   21   41 1
  41   22   42 1
  42   24   25 1
  43   25   26 1
  44   25   43 1
  45   25   44 1
  46   26   27 1
  47   26   45 1
  48   26   46 1

#	End of record

