#	Name: ASD00069068
#	Creating user name:	WinNT
#	Creation time:	15. 06. 2019 18:29

#	Modifying user name:	WinNT
#	Modification time:	15. 06. 2019 18:29

#	Program:	/corina/corina34_cracker 3.40 0067  02.08.2006

@<TRIPOS>MOLECULE
ASD00069068
  27   27    0    0    0
SMALL
NO_CHARGES


@<TRIPOS>ATOM
   1 C1            -0.0187     1.5258     0.0104 C.3     
   2 C2             0.0021    -0.0041     0.0020 C.3     
   3 C3             1.4167     2.0553    -0.0004 C.3     
   4 C4            -0.7475     2.0250    -1.2105 C.ar    
   5 C5            -1.8807     2.8035    -1.0686 C.ar    
   6 C6            -2.5494     3.2615    -2.1887 C.ar    
   7 C7            -2.0845     2.9411    -3.4503 C.ar    
   8 C8            -0.9505     2.1631    -3.5922 C.ar    
   9 C9            -0.2795     1.7089    -2.4724 C.ar    
  10 S10           -3.9947     4.2530    -2.0079 S.o2    
  11 C11           -3.3722     5.9563    -1.9625 C.3     
  12 O12           -4.7295     4.0224    -3.2021 O.2     
  13 O13           -4.5194     3.8799    -0.7412 O.2     
  14 H14           -0.5289     1.8773     0.9072 H       
  15 H15           -1.0205    -0.3814     0.0098 H       
  16 H16            0.5123    -0.3556    -0.8948 H       
  17 H17            0.5293    -0.3651     0.8851 H       
  18 H18            1.9269     1.7038    -0.8972 H       
  19 H19            1.4019     3.1452     0.0056 H       
  20 H20            1.9439     1.6943     0.8826 H       
  21 H21           -2.2440     3.0538    -0.0829 H       
  22 H22           -2.6073     3.2983    -4.3253 H       
  23 H23           -0.5874     1.9125    -4.5779 H       
  24 H24            0.6064     1.1011    -2.5832 H       
  25 H25           -2.8425     6.1744    -2.8898 H       
  26 H26           -4.2089     6.6460    -1.8511 H       
  27 H27           -2.6913     6.0719    -1.1192 H       
@<TRIPOS>BOND
   1    1    2 1
   2    1    3 1
   3    1    4 1
   4    1   14 1
   5    2   15 1
   6    2   16 1
   7    2   17 1
   8    3   18 1
   9    3   19 1
  10    3   20 1
  11    4    5 ar
  12    4    9 ar
  13    5    6 ar
  14    5   21 1
  15    6    7 ar
  16    6   10 1
  17    7    8 ar
  18    7   22 1
  19    8    9 ar
  20    8   23 1
  21    9   24 1
  22   10   11 1
  23   10   12 2
  24   10   13 2
  25   11   25 1
  26   11   26 1
  27   11   27 1

#	End of record

