#	Name: ASD01884476
#	Creating user name:	WinNT
#	Creation time:	15. 06. 2019 19:48

#	Modifying user name:	WinNT
#	Modification time:	15. 06. 2019 19:48

#	Program:	/corina/corina34_cracker 3.40 0067  02.08.2006

@<TRIPOS>MOLECULE
ASD01884476
  43   45    0    0    0
SMALL
NO_CHARGES


@<TRIPOS>ATOM
   1 C1            -0.0545     1.3506    -0.0267 C.2     
   2 C2            -0.0293    -0.0110    -0.0322 C.2     
   3 C3             1.2159    -0.6760    -0.0233 C.2     
   4 C4             2.3708     0.0512    -0.0092 C.2     
   5 N5             2.3316     1.4071    -0.0038 N.am    
   6 C6             1.1569     2.0641    -0.0121 C.2     
   7 C7             1.2690    -2.1590    -0.0286 C.ar    
   8 C8             3.5844     2.1663     0.0114 C.3     
   9 O9             1.1432     3.2845    -0.0066 O.2     
  10 C10            4.0274     2.4327    -1.4042 C.ar    
  11 C11            3.6100     3.5789    -2.0547 C.ar    
  12 C12            4.0160     3.8238    -3.3529 C.ar    
  13 C13            4.8404     2.9216    -4.0015 C.ar    
  14 C14            5.2579     1.7747    -3.3499 C.ar    
  15 C15            4.8557     1.5337    -2.0497 C.ar    
  16 C16            0.7742    -2.8789     1.0575 C.ar    
  17 C17            1.8085    -2.8341    -1.1222 C.ar    
  18 C18            1.8569    -4.2121    -1.1251 C.ar    
  19 C19            1.3682    -4.9279    -0.0385 C.ar    
  20 C20            0.8246    -4.2569     1.0505 C.ar    
  21 Cl21           5.3503     3.2282    -5.6323 Cl      
  22 N22            1.4182    -6.3236    -0.0435 N.pl3   
  23 C23            1.8644    -7.0363    -1.2432 C.3     
  24 C24            1.0244    -7.0750     1.1509 C.3     
  25 H25           -0.9970     1.8778    -0.0379 H       
  26 H26           -0.9503    -0.5750    -0.0430 H       
  27 H27            3.3237    -0.4570    -0.0019 H       
  28 H28            3.4289     3.1136     0.5278 H       
  29 H29            4.3515     1.5913     0.5301 H       
  30 H30            2.9662     4.2829    -1.5485 H       
  31 H31            3.6895     4.7190    -3.8612 H       
  32 H32            5.9014     1.0701    -3.8556 H       
  33 H33            5.1815     0.6385    -1.5409 H       
  34 H34            0.3521    -2.3579     1.9041 H       
  35 H35            2.1880    -2.2782    -1.9668 H       
  36 H36            2.2745    -4.7356    -1.9724 H       
  37 H37            0.4454    -4.8150     1.8938 H       
  38 H38            2.9441    -7.1796    -1.2002 H       
  39 H39            1.3709    -8.0068    -1.2939 H       
  40 H40            1.6103    -6.4528    -2.1281 H       
  41 H41            0.8160    -6.3805     1.9647 H       
  42 H42            0.1303    -7.6595     0.9340 H       
  43 H43            1.8340    -7.7440     1.4425 H       
@<TRIPOS>BOND
   1    1    2 2
   2    1    6 1
   3    1   25 1
   4    2    3 1
   5    2   26 1
   6    3    4 2
   7    3    7 1
   8    4    5 1
   9    4   27 1
  10    5    6 am
  11    5    8 1
  12    6    9 2
  13    7   16 ar
  14    7   17 ar
  15    8   10 1
  16    8   28 1
  17    8   29 1
  18   10   11 ar
  19   10   15 ar
  20   11   12 ar
  21   11   30 1
  22   12   13 ar
  23   12   31 1
  24   13   14 ar
  25   13   21 1
  26   14   15 ar
  27   14   32 1
  28   15   33 1
  29   16   20 ar
  30   16   34 1
  31   17   18 ar
  32   17   35 1
  33   18   19 ar
  34   18   36 1
  35   19   20 ar
  36   19   22 1
  37   20   37 1
  38   22   23 1
  39   22   24 1
  40   23   38 1
  41   23   39 1
  42   23   40 1
  43   24   41 1
  44   24   42 1
  45   24   43 1

#	End of record

