#	Name: ASD09380004
#	Creating user name:	WinNT
#	Creation time:	15. 06. 2019 21:21

#	Modifying user name:	WinNT
#	Modification time:	15. 06. 2019 21:21

#	Program:	/corina/corina34_cracker 3.40 0067  02.08.2006

@<TRIPOS>MOLECULE
ASD09380004
  56   58    0    0    0
SMALL
NO_CHARGES


@<TRIPOS>ATOM
   1 C1            -0.0184     1.5028     0.0103 C.2     
   2 C2             0.0021    -0.0041     0.0020 C.3     
   3 C3             1.4513    -0.4944    -0.0145 C.3     
   4 C4             1.4723    -1.9954    -0.1466 C.2     
   5 C5             2.0666    -2.5545    -1.1714 C.2     
   6 C6             2.0876    -4.0556    -1.3035 C.3     
   7 O7             1.0197     2.1211     0.0037 O.2     
   8 O8            -1.1898     2.1580     0.0194 O.3     
   9 C9             2.1318    -0.0935     1.2690 C.ar    
  10 C10            3.2469     0.7233     1.2330 C.ar    
  11 C11            3.8726     1.0922     2.4081 C.ar    
  12 C12            3.3811     0.6424     3.6250 C.ar    
  13 C13            2.2622    -0.1770     3.6584 C.ar    
  14 C14            1.6368    -0.5384     2.4809 C.ar    
  15 O15            3.9951     1.0036     4.7823 O.3     
  16 C16            3.4343     0.5033     5.9978 C.3     
  17 C17            5.7252     1.9259     9.3155 C.ar    
  18 C18            4.6415     2.6652     8.8457 C.ar    
  19 C19            3.9053     2.2011     7.7745 C.ar    
  20 C20            4.2417     1.0047     7.1673 C.ar    
  21 C21            5.3162     0.2665     7.6298 C.ar    
  22 C22            6.0594     0.7211     8.7002 C.ar    
  23 C23            6.5241     2.4227    10.4628 C.ar    
  24 C24            7.0051     3.7329    10.4659 C.ar    
  25 C25            7.7492     4.1921    11.5366 C.ar    
  26 C26            8.0180     3.3565    12.6046 C.ar    
  27 C27            7.5433     2.0525    12.6080 C.ar    
  28 C28            6.7916     1.5851    11.5426 C.ar    
  29 O29            7.8110     1.2350    13.6607 O.3     
  30 C30            8.5862     1.7845    14.7280 C.3     
  31 F31            6.7442     4.5514     9.4232 F       
  32 H32           -0.4983    -0.3791     0.8948 H       
  33 H33           -0.5153    -0.3696    -0.8850 H       
  34 H34            1.9763    -0.0479    -0.8589 H       
  35 H35            0.9973    -2.6102     0.6037 H       
  36 H36            2.5415    -1.9397    -1.9216 H       
  37 H37            2.6227    -4.3329    -2.2117 H       
  38 H38            2.5899    -4.4894    -0.4389 H       
  39 H39            1.0653    -4.4301    -1.3555 H       
  40 H40           -1.1523     3.1243     0.0245 H       
  41 H41            3.6293     1.0728     0.2853 H       
  42 H42            4.7437     1.7299     2.3794 H       
  43 H43            1.8777    -0.5284     4.6045 H       
  44 H44            0.7628    -1.1724     2.5066 H       
  45 H45            2.4048     0.8489     6.0921 H       
  46 H46            3.4520    -0.5865     5.9845 H       
  47 H47            4.3780     3.5995     9.3191 H       
  48 H48            3.0649     2.7731     7.4098 H       
  49 H49            5.5742    -0.6671     7.1522 H       
  50 H50            6.8981     0.1440     9.0606 H       
  51 H51            8.1216     5.2058    11.5385 H       
  52 H52            8.5997     3.7197    13.4390 H       
  53 H53            6.4179     0.5718    11.5471 H       
  54 H54            8.7264     1.0293    15.5014 H       
  55 H55            9.5578     2.0990    14.3469 H       
  56 H56            8.0657     2.6443    15.1499 H       
@<TRIPOS>BOND
   1    1    2 1
   2    1    7 2
   3    1    8 1
   4    2    3 1
   5    2   32 1
   6    2   33 1
   7    3    4 1
   8    3    9 1
   9    3   34 1
  10    4    5 2
  11    4   35 1
  12    5    6 1
  13    5   36 1
  14    6   37 1
  15    6   38 1
  16    6   39 1
  17    8   40 1
  18    9   10 ar
  19    9   14 ar
  20   10   11 ar
  21   10   41 1
  22   11   12 ar
  23   11   42 1
  24   12   13 ar
  25   12   15 1
  26   13   14 ar
  27   13   43 1
  28   14   44 1
  29   15   16 1
  30   16   20 1
  31   16   45 1
  32   16   46 1
  33   17   18 ar
  34   17   22 ar
  35   17   23 1
  36   18   19 ar
  37   18   47 1
  38   19   20 ar
  39   19   48 1
  40   20   21 ar
  41   21   22 ar
  42   21   49 1
  43   22   50 1
  44   23   24 ar
  45   23   28 ar
  46   24   25 ar
  47   24   31 1
  48   25   26 ar
  49   25   51 1
  50   26   27 ar
  51   26   52 1
  52   27   28 ar
  53   27   29 1
  54   28   53 1
  55   29   30 1
  56   30   54 1
  57   30   55 1
  58   30   56 1

#	End of record

