#	Name: ASD03080057
#	Creating user name:	WinNT
#	Creation time:	15. 06. 2019 20:26

#	Modifying user name:	WinNT
#	Modification time:	15. 06. 2019 20:26

#	Program:	/corina/corina34_cracker 3.40 0067  02.08.2006

@<TRIPOS>MOLECULE
ASD03080057
  26   28    0    0    0
SMALL
NO_CHARGES


@<TRIPOS>ATOM
   1 C1            -0.0170     1.4028     0.0098 C.2     
   2 C2             0.0021    -0.0041     0.0020 C.2     
   3 C3             1.1949    -0.6579    -0.0129 C.2     
   4 C4             2.3918     0.0970    -0.0204 C.2     
   5 C5             2.3260     1.4743    -0.0123 C.2     
   6 N6             1.1330     2.1011     0.0025 N.am    
   7 O7            -1.0842     1.9938     0.0180 O.2     
   8 O8             3.9124    -1.9105    -0.0452 O.3     
   9 N9             5.1033    -2.1387    -0.0570 N.2     
  10 C10            5.7814    -1.0197    -0.0568 C.2     
  11 N11            4.8891    -0.0077    -0.0434 N.2     
  12 C12            3.7009    -0.5849    -0.0361 C.2     
  13 C13            7.8583     0.3702    -0.0666 C.ar    
  14 C14            7.2599    -0.8878    -0.0687 C.ar    
  15 C15            8.0737    -2.0233    -0.0817 C.ar    
  16 C16            9.4470    -1.8469    -0.0920 C.ar    
  17 C17            9.9642    -0.5646    -0.0891 C.ar    
  18 N18            9.1701     0.4887    -0.0767 N.ar    
  19 H19           -0.9234    -0.5607     0.0083 H       
  20 H20            1.2279    -1.7373    -0.0187 H       
  21 H21            3.2368     2.0547    -0.0179 H       
  22 H22            1.1030     3.0706     0.0077 H       
  23 H23            7.2410     1.2564    -0.0612 H       
  24 H24            7.6426    -3.0135    -0.0833 H       
  25 H25           10.1071    -2.7017    -0.1018 H       
  26 H26           11.0349    -0.4232    -0.0967 H       
@<TRIPOS>BOND
   1    1    2 1
   2    1    6 am
   3    1    7 2
   4    2    3 2
   5    2   19 1
   6    3    4 1
   7    3   20 1
   8    4    5 2
   9    4   12 1
  10    5    6 1
  11    5   21 1
  12    6   22 1
  13    8    9 1
  14    8   12 1
  15    9   10 2
  16   10   11 1
  17   10   14 1
  18   11   12 2
  19   13   14 ar
  20   13   18 ar
  21   13   23 1
  22   14   15 ar
  23   15   16 ar
  24   15   24 1
  25   16   17 ar
  26   16   25 1
  27   17   18 ar
  28   17   26 1

#	End of record

