#	Name: ASD01915993
#	Creating user name:	WinNT
#	Creation time:	15. 06. 2019 20:06

#	Modifying user name:	WinNT
#	Modification time:	15. 06. 2019 20:06

#	Program:	/corina/corina34_cracker 3.40 0067  02.08.2006

@<TRIPOS>MOLECULE
ASD01915993
  41   42    0    0    0
SMALL
NO_CHARGES


@<TRIPOS>ATOM
   1 C1            -0.0187     1.4128     0.1430 C.ar    
   2 C2            -0.0051     0.0090     0.1204 C.ar    
   3 C3             1.2374    -0.6414     0.0548 C.ar    
   4 N4             2.3368     0.0848     0.0173 N.ar    
   5 C5             2.2799     1.4097     0.0406 C.ar    
   6 N6             1.1273     2.0629     0.1022 N.ar    
   7 C7             3.5434     2.1841    -0.0034 C.2     
   8 N8             3.5072     3.5268    -0.1142 N.am    
   9 O9             4.6115     1.6083     0.0603 O.2     
  10 C10            4.7472     4.3024    -0.0300 C.3     
  11 C11            5.6991     3.8650    -1.1451 C.3     
  12 C12            4.4293     5.7909    -0.1855 C.3     
  13 C13            5.4083     4.0613     1.3286 C.3     
  14 C14           -1.2255    -0.7390     0.1634 C.1     
  15 C15           -2.2259    -1.3523     0.1987 C.1     
  16 C16           -3.4463    -2.1003     0.2418 C.ar    
  17 C17           -3.4145    -3.4970     0.2184 C.ar    
  18 C18           -4.6746    -1.4366     0.3132 C.ar    
  19 C19           -5.8464    -2.1624     0.3543 C.ar    
  20 C20           -4.5962    -4.2116     0.2602 C.ar    
  21 C21           -5.8097    -3.5454     0.3256 C.ar    
  22 C22            2.2279     4.2107    -0.3189 C.3     
  23 F23           -4.5687    -5.5621     0.2378 F       
  24 H24           -0.9535     1.9516     0.1887 H       
  25 H25            1.2916    -1.7199     0.0358 H       
  26 H26            5.2281     4.0368    -2.1130 H       
  27 H27            6.6217     4.4421    -1.0825 H       
  28 H28            5.9256     2.8046    -1.0344 H       
  29 H29            3.7512     6.1025     0.6090 H       
  30 H30            5.3519     6.3680    -0.1228 H       
  31 H31            3.9584     5.9627    -1.1533 H       
  32 H32            5.6348     3.0008     1.4394 H       
  33 H33            6.3309     4.6383     1.3913 H       
  34 H34            4.7302     4.3729     2.1230 H       
  35 H35           -2.4690    -4.0165     0.1675 H       
  36 H36           -4.7057    -0.3573     0.3364 H       
  37 H37           -6.7955    -1.6500     0.4095 H       
  38 H38           -6.7308    -4.1083     0.3588 H       
  39 H39            1.7423     4.3688     0.6441 H       
  40 H40            2.4033     5.1731    -0.7997 H       
  41 H41            1.5864     3.5992    -0.9533 H       
@<TRIPOS>BOND
   1    1    2 ar
   2    1    6 ar
   3    1   24 1
   4    2    3 ar
   5    2   14 1
   6    3    4 ar
   7    3   25 1
   8    4    5 ar
   9    5    6 ar
  10    5    7 1
  11    7    8 am
  12    7    9 2
  13    8   10 1
  14    8   22 1
  15   10   11 1
  16   10   12 1
  17   10   13 1
  18   11   26 1
  19   11   27 1
  20   11   28 1
  21   12   29 1
  22   12   30 1
  23   12   31 1
  24   13   32 1
  25   13   33 1
  26   13   34 1
  27   14   15 3
  28   15   16 1
  29   16   17 ar
  30   16   18 ar
  31   17   20 ar
  32   17   35 1
  33   18   19 ar
  34   18   36 1
  35   19   21 ar
  36   19   37 1
  37   20   23 1
  38   20   21 ar
  39   21   38 1
  40   22   39 1
  41   22   40 1
  42   22   41 1

#	End of record

