#	Name: ASD01410337
#	Creating user name:	WinNT
#	Creation time:	15. 06. 2019 19:17

#	Modifying user name:	WinNT
#	Modification time:	15. 06. 2019 19:17

#	Program:	/corina/corina34_cracker 3.40 0067  02.08.2006

@<TRIPOS>MOLECULE
ASD01410337
  68   72    0    0    0
SMALL
NO_CHARGES


@<TRIPOS>ATOM
   1 O1            -0.0459     0.6513     0.0441 O.3     
   2 C2             0.1698    -0.6578     0.2343 C.2     
   3 C3             1.5134    -0.8744     0.2484 C.2     
   4 C4             2.1307     0.4427     0.0460 C.2     
   5 C5             1.1153     1.3140    -0.0690 C.2     
   6 N6             3.2705    -2.6106    -0.3196 N.pl3   
   7 C7             2.2074    -2.1673     0.4299 C.2     
   8 C8             1.8945    -3.1022     1.3637 C.2     
   9 C9             2.7902    -4.1868     1.2083 C.ar    
  10 C10            3.6465    -3.8585     0.1372 C.ar    
  11 C11            2.9430    -5.4101     1.8775 C.ar    
  12 C12            3.9203    -6.2771     1.4968 C.ar    
  13 C13            4.7807    -5.9566     0.4356 C.ar    
  14 C14            4.6377    -4.7472    -0.2446 C.ar    
  15 C15           -0.1951    -4.1559     2.1835 C.3     
  16 C16           -1.3166    -4.0547     3.2194 C.3     
  17 C17           -0.7200    -4.1322     4.6261 C.3     
  18 C18            0.2650    -2.9788     4.8266 C.3     
  19 C19            1.3865    -3.0800     3.7907 C.3     
  20 C20            0.7899    -3.0025     2.3839 C.3     
  21 C21            3.8976    -1.8821    -1.4252 C.3     
  22 C22            5.0121    -1.0200    -0.8906 C.2     
  23 O23            5.2582    -1.0146     0.2970 O.2     
  24 N24            5.7352    -0.2550    -1.7322 N.am    
  25 C25            6.8271     0.5937    -1.2314 C.3     
  26 C26            8.0837     0.3102    -2.0613 C.3     
  27 N27            7.7725     0.4756    -3.4874 N.3     
  28 C28            6.7641    -0.4970    -3.9290 C.3     
  29 C29            5.4573    -0.2512    -3.1765 C.3     
  30 C30            8.9886     0.3815    -4.3060 C.3     
  31 C31            8.6137     0.4606    -5.7873 C.3     
  32 O32            8.0088     1.7265    -6.0586 O.3     
  33 C33            5.8349    -6.9042     0.0339 C.2     
  34 O34            6.5814    -6.6291    -0.8849 O.2     
  35 O35            5.9715    -8.0762     0.6853 O.3     
  36 H36           -0.5930    -1.4125     0.3560 H       
  37 H37            3.1865     0.6652    -0.0008 H       
  38 H38            1.2170     2.3775    -0.2277 H       
  39 H39            2.2850    -5.6637     2.6954 H       
  40 H40            4.0347    -7.2177     2.0150 H       
  41 H41            5.3006    -4.5024    -1.0614 H       
  42 H42            0.3271    -5.1050     2.3049 H       
  43 H43           -0.6202    -4.1007     1.1813 H       
  44 H44           -1.8388    -3.1057     3.0979 H       
  45 H45           -2.0184    -4.8765     3.0766 H       
  46 H46           -1.5189    -4.0601     5.3641 H       
  47 H47           -0.1978    -5.0812     4.7476 H       
  48 H48           -0.2572    -2.0297     4.7051 H       
  49 H49            0.6901    -3.0339     5.8288 H       
  50 H50            2.0882    -2.2582     3.9335 H       
  51 H51            1.9087    -4.0290     3.9121 H       
  52 H52            0.2677    -2.0535     2.2625 H       
  53 H53            4.3019    -2.5930    -2.1457 H       
  54 H54            3.1538    -1.2527    -1.9138 H       
  55 H55            6.5508     1.6433    -1.3323 H       
  56 H56            7.0201     0.3620    -0.1840 H       
  57 H57            8.8719     1.0077    -1.7778 H       
  58 H58            8.4179    -0.7110    -1.8780 H       
  59 H59            6.5951    -0.3850    -5.0000 H       
  60 H60            7.1166    -1.5070    -3.7197 H       
  61 H61            4.7433    -1.0393    -3.4156 H       
  62 H62            5.0471     0.7174    -3.4619 H       
  63 H63            9.6591     1.2039    -4.0565 H       
  64 H64            9.4876    -0.5671    -4.1077 H       
  65 H65            9.5112     0.3489    -6.3957 H       
  66 H66            7.9105    -0.3369    -6.0272 H       
  67 H67            7.7449     1.8467    -6.9811 H       
  68 H68            6.6775    -8.6652     0.3858 H       
@<TRIPOS>BOND
   1    1    2 1
   2    1    5 1
   3    2    3 2
   4    2   36 1
   5    3    4 1
   6    3    7 1
   7    4    5 2
   8    4   37 1
   9    5   38 1
  10    6    7 1
  11    6   21 1
  12    6   10 1
  13    7    8 2
  14    8    9 1
  15    8   20 1
  16    9   10 ar
  17    9   11 ar
  18   10   14 ar
  19   11   12 ar
  20   11   39 1
  21   12   13 ar
  22   12   40 1
  23   13   14 ar
  24   13   33 1
  25   14   41 1
  26   15   16 1
  27   15   20 1
  28   15   42 1
  29   15   43 1
  30   16   17 1
  31   16   44 1
  32   16   45 1
  33   17   18 1
  34   17   46 1
  35   17   47 1
  36   18   19 1
  37   18   48 1
  38   18   49 1
  39   19   20 1
  40   19   50 1
  41   19   51 1
  42   20   52 1
  43   21   22 1
  44   21   53 1
  45   21   54 1
  46   22   23 2
  47   22   24 am
  48   24   25 1
  49   24   29 1
  50   25   26 1
  51   25   55 1
  52   25   56 1
  53   26   27 1
  54   26   57 1
  55   26   58 1
  56   27   28 1
  57   27   30 1
  58   28   29 1
  59   28   59 1
  60   28   60 1
  61   29   61 1
  62   29   62 1
  63   30   31 1
  64   30   63 1
  65   30   64 1
  66   31   32 1
  67   31   65 1
  68   31   66 1
  69   32   67 1
  70   33   34 2
  71   33   35 1
  72   35   68 1

#	End of record

