#	Name: ASD01840469
#	Creating user name:	WinNT
#	Creation time:	15. 06. 2019 19:37

#	Modifying user name:	WinNT
#	Modification time:	15. 06. 2019 19:37

#	Program:	/corina/corina34_cracker 3.40 0067  02.08.2006

@<TRIPOS>MOLECULE
ASD01840469
  46   49    0    0    0
SMALL
NO_CHARGES


@<TRIPOS>ATOM
   1 C1             0.0386     7.1848     0.5970 C.ar    
   2 C2            -0.0533     8.3977     1.2437 C.ar    
   3 N3             0.9729     9.2311     1.2438 N.ar    
   4 N4             2.0801     8.9635     0.6585 N.ar    
   5 C5             1.2524     6.8699    -0.0555 C.ar    
   6 C6             1.6336     5.6873    -0.8053 C.2     
   7 C7             2.2820     7.8188     0.0018 C.ar    
   8 S8             3.6923     7.2300    -0.8671 S.3     
   9 C9             2.8961     5.7294    -1.2987 C.2     
  10 C10           -1.1186     6.2194     0.5907 C.3     
  11 C11           -1.3281     8.7759     1.9528 C.3     
  12 N12            0.7817     4.6085    -0.9998 N.pl3   
  13 C13            3.5126     4.6625    -2.0858 C.2     
  14 O14            2.9397     3.5966    -2.2206 O.2     
  15 N15            4.7149     4.8589    -2.6622 N.am    
  16 C16            5.4104     3.9053    -3.5455 C.3     
  17 C17            6.9095     4.2779    -3.4293 C.3     
  18 C18            6.8392     5.8246    -3.3294 C.3     
  19 C19            5.5473     6.0624    -2.5193 C.3     
  20 C20            8.0365     6.3727    -2.5965 C.ar    
  21 O21            6.7332     6.4035    -4.6316 O.3     
  22 C22            8.3623     5.8867    -1.3441 C.ar    
  23 C23            9.4606     6.3895    -0.6718 C.ar    
  24 C24           10.2333     7.3778    -1.2521 C.ar    
  25 C25            9.9081     7.8631    -2.5050 C.ar    
  26 C26            8.8124     7.3573    -3.1791 C.ar    
  27 H27           -1.7002     6.3554    -0.3210 H       
  28 H28           -0.7399     5.1981     0.6313 H       
  29 H29           -1.7525     6.4066     1.4574 H       
  30 H30           -1.2840     8.4337     2.9867 H       
  31 H31           -1.4469     9.8593     1.9334 H       
  32 H32           -2.1754     8.3085     1.4512 H       
  33 H33           -0.1600     4.6886    -0.7812 H       
  34 H34            1.1281     3.7747    -1.3543 H       
  35 H35            5.2460     2.8831    -3.2046 H       
  36 H36            5.0690     4.0225    -4.5740 H       
  37 H37            7.3504     3.8479    -2.5299 H       
  38 H38            7.4591     3.9684    -4.3183 H       
  39 H39            5.0158     6.9294    -2.9115 H       
  40 H40            5.7940     6.2199    -1.4693 H       
  41 H41            6.6072     7.3623    -4.6267 H       
  42 H42            7.7585     5.1145    -0.8906 H       
  43 H43            9.7146     6.0103     0.3070 H       
  44 H44           11.0910     7.7711    -0.7266 H       
  45 H45           10.5117     8.6356    -2.9583 H       
  46 H46            8.5604     7.7339    -4.1595 H       
@<TRIPOS>BOND
   1    1    2 ar
   2    1    5 ar
   3    1   10 1
   4    2   11 1
   5    2    3 ar
   6    3    4 ar
   7    4    7 ar
   8    5    7 ar
   9    5    6 1
  10    6    9 2
  11    6   12 1
  12    7    8 1
  13    8    9 1
  14    9   13 1
  15   10   27 1
  16   10   28 1
  17   10   29 1
  18   11   30 1
  19   11   31 1
  20   11   32 1
  21   12   33 1
  22   12   34 1
  23   13   14 2
  24   13   15 am
  25   15   16 1
  26   15   19 1
  27   16   17 1
  28   16   35 1
  29   16   36 1
  30   17   18 1
  31   17   37 1
  32   17   38 1
  33   18   19 1
  34   18   20 1
  35   18   21 1
  36   19   39 1
  37   19   40 1
  38   20   22 ar
  39   20   26 ar
  40   21   41 1
  41   22   23 ar
  42   22   42 1
  43   23   24 ar
  44   23   43 1
  45   24   25 ar
  46   24   44 1
  47   25   26 ar
  48   25   45 1
  49   26   46 1

#	End of record

