#	Name: ASD02448116
#	Creating user name:	WinNT
#	Creation time:	15. 06. 2019 20:21

#	Modifying user name:	WinNT
#	Modification time:	15. 06. 2019 20:21

#	Program:	/corina/corina34_cracker 3.40 0067  02.08.2006

@<TRIPOS>MOLECULE
ASD02448116
  77   82    0    0    0
SMALL
NO_CHARGES


@<TRIPOS>ATOM
   1 C1             4.5560    -7.9206    -2.7918 C.ar    
   2 C2             3.8477    -6.8757    -2.2330 C.ar    
   3 C3             3.3029    -5.8922    -3.0474 C.ar    
   4 C4             3.4697    -5.9592    -4.4240 C.ar    
   5 C5             4.1778    -7.0037    -4.9836 C.ar    
   6 C6             4.7235    -7.9878    -4.1691 C.ar    
   7 N7             5.4412    -9.0456    -4.7354 N.am    
   8 C8             6.4827    -9.8685    -4.1067 C.3     
   9 C9             7.0044   -10.9012    -5.0530 C.2     
  10 N10            6.4397   -10.8855    -6.2686 N.am    
  11 S11            5.3056    -9.6670    -6.2778 S.o2    
  12 O12            7.8713   -11.6915    -4.7451 O.2     
  13 O13            4.0291   -10.2831    -6.3786 O.2     
  14 O14            5.7748    -8.6643    -7.1686 O.2     
  15 N15            2.5828    -4.8300    -2.4788 N.pl3   
  16 C16            1.4925    -4.9362    -1.6578 C.2     
  17 C17            2.8419    -3.5057    -2.6364 C.2     
  18 N18            1.9635    -2.8205    -1.9587 N.2     
  19 C19            1.1158    -3.6693    -1.3428 C.2     
  20 C20           -0.0255    -3.2875    -0.4753 C.ar    
  21 C21           -0.3014    -1.9417    -0.2335 C.ar    
  22 C22           -0.8291    -4.2718     0.0961 C.ar    
  23 C23           -1.8898    -3.9117     0.9025 C.ar    
  24 C24           -2.1564    -2.5751     1.1443 C.ar    
  25 C25           -1.3650    -1.5922     0.5748 C.ar    
  26 C26            3.9620    -2.9236    -3.4595 C.3     
  27 C27            5.1440    -2.6385    -2.5692 C.ar    
  28 C28            6.0551    -3.6415    -2.2913 C.ar    
  29 C29            5.3170    -1.3733    -2.0376 C.ar    
  30 C30            6.3979    -1.1066    -1.2220 C.ar    
  31 C31            7.3159    -2.1146    -0.9344 C.ar    
  32 C32            7.1397    -3.3859    -1.4769 C.ar    
  33 C33            8.4804    -1.8336    -0.0586 C.ar    
  34 C34            9.3984    -2.8417     0.2290 C.ar    
  35 C35            8.6629    -0.5593     0.4747 C.ar    
  36 C36            9.7477    -0.3036     1.2887 C.ar    
  37 C37           10.6530    -1.3093     1.5752 C.ar    
  38 C38           10.4796    -2.5748     1.0443 C.ar    
  39 C39           11.8361    -1.0237     2.4639 C.3     
  40 C40           11.7813    -1.9323     3.6937 C.3     
  41 C41           10.5633    -1.5664     4.5442 C.3     
  42 C42           13.2451    -0.2951     0.5335 C.3     
  43 C43           13.1299    -1.2886     1.6914 C.3     
  44 Cl44          -3.4925    -2.1295     2.1592 Cl      
  45 Cl45           0.6908    -0.7087    -0.9469 Cl      
  46 H46            4.9836    -8.6832    -2.1579 H       
  47 H47            3.7171    -6.8236    -1.1622 H       
  48 H48            3.0450    -5.1943    -5.0572 H       
  49 H49            4.3072    -7.0560    -6.0545 H       
  50 H50            7.3044    -9.2251    -3.7920 H       
  51 H51            6.0651   -10.3652    -3.2310 H       
  52 H52            6.6511   -11.4779    -7.0070 H       
  53 H53            1.0228    -5.8499    -1.3249 H       
  54 H54           -0.6226    -5.3151    -0.0920 H       
  55 H55           -2.5132    -4.6743     1.3454 H       
  56 H56           -1.5771    -0.5508     0.7665 H       
  57 H57            4.2526    -3.6351    -4.2325 H       
  58 H58            3.6267    -1.9973    -3.9259 H       
  59 H59            5.9173    -4.6266    -2.7120 H       
  60 H60            4.6050    -0.5927    -2.2614 H       
  61 H61            6.5322    -0.1183    -0.8077 H       
  62 H62            7.8480    -4.1709    -1.2569 H       
  63 H63            9.2639    -3.8301    -0.1850 H       
  64 H64            7.9570     0.2269     0.2511 H       
  65 H65            9.8901     0.6838     1.7026 H       
  66 H66           11.1893    -3.3565     1.2714 H       
  67 H67           11.8091     0.0188     2.7809 H       
  68 H68           11.7025    -2.9715     3.3744 H       
  69 H69           12.6887    -1.8011     4.2831 H       
  70 H70           10.6818    -0.5548     4.9323 H       
  71 H71            9.6635    -1.6173     3.9311 H       
  72 H72           10.4768    -2.2665     5.3752 H       
  73 H73           14.1224    -0.5366    -0.0666 H       
  74 H74           12.3517    -0.3564    -0.0880 H       
  75 H75           13.3431     0.7154     0.9302 H       
  76 H76           13.9829    -1.1686     2.3593 H       
  77 H77           13.1167    -2.3050     1.2980 H       
@<TRIPOS>BOND
   1    1    2 ar
   2    1    6 ar
   3    1   46 1
   4    2    3 ar
   5    2   47 1
   6    3    4 ar
   7    3   15 1
   8    4    5 ar
   9    4   48 1
  10    5    6 ar
  11    5   49 1
  12    6    7 1
  13    7    8 1
  14    7   11 am
  15    8    9 1
  16    8   50 1
  17    8   51 1
  18    9   10 am
  19    9   12 2
  20   10   11 am
  21   10   52 1
  22   11   13 2
  23   11   14 2
  24   15   16 1
  25   15   17 1
  26   16   19 2
  27   16   53 1
  28   17   18 2
  29   17   26 1
  30   18   19 1
  31   19   20 1
  32   20   21 ar
  33   20   22 ar
  34   21   45 1
  35   21   25 ar
  36   22   23 ar
  37   22   54 1
  38   23   24 ar
  39   23   55 1
  40   24   25 ar
  41   24   44 1
  42   25   56 1
  43   26   27 1
  44   26   57 1
  45   26   58 1
  46   27   28 ar
  47   27   29 ar
  48   28   32 ar
  49   28   59 1
  50   29   30 ar
  51   29   60 1
  52   30   31 ar
  53   30   61 1
  54   31   32 ar
  55   31   33 1
  56   32   62 1
  57   33   34 ar
  58   33   35 ar
  59   34   38 ar
  60   34   63 1
  61   35   36 ar
  62   35   64 1
  63   36   37 ar
  64   36   65 1
  65   37   39 1
  66   37   38 ar
  67   38   66 1
  68   39   40 1
  69   39   43 1
  70   39   67 1
  71   40   41 1
  72   40   68 1
  73   40   69 1
  74   41   70 1
  75   41   71 1
  76   41   72 1
  77   42   43 1
  78   42   73 1
  79   42   74 1
  80   42   75 1
  81   43   76 1
  82   43   77 1

#	End of record

