#	Name: ASD01000098
#	Creating user name:	WinNT
#	Creation time:	15. 06. 2019 18:54

#	Modifying user name:	WinNT
#	Modification time:	15. 06. 2019 18:54

#	Program:	/corina/corina34_cracker 3.40 0067  02.08.2006

@<TRIPOS>MOLECULE
ASD01000098
  56   58    0    0    0
SMALL
NO_CHARGES


@<TRIPOS>ATOM
   1 C1            -0.1518     1.2022    -0.4703 C.ar    
   2 C2            -0.0843    -0.1767    -0.3941 C.ar    
   3 C3             1.1418    -0.8071    -0.3065 C.ar    
   4 C4             2.3090    -0.0544    -0.2950 C.ar    
   5 C5             2.2384     1.3337    -0.3717 C.ar    
   6 C6             1.0073     1.9568    -0.4591 C.ar    
   7 N7             3.5500    -0.6884    -0.2060 N.pl3   
   8 C8             4.3005    -1.2271    -1.3517 C.3     
   9 F9             3.3707     2.0707    -0.3604 F       
  10 C10           -1.3507    -0.9935    -0.4062 C.3     
  11 N11            4.1949    -0.8769     0.8804 N.2     
  12 C12            5.3380    -1.4858     0.7752 C.2     
  13 C13            5.5724    -1.8024    -0.6896 C.3     
  14 C14            6.8064    -1.1040    -1.2001 C.ar    
  15 C15            6.8885     0.2752    -1.1551 C.ar    
  16 C16            7.8584    -1.8428    -1.7083 C.ar    
  17 C17            8.9903    -1.2022    -2.1766 C.ar    
  18 C18            9.0700     0.1773    -2.1372 C.ar    
  19 C19            8.0204     0.9159    -1.6234 C.ar    
  20 C20            5.6702    -3.3128    -0.9131 C.3     
  21 C21            4.4271    -3.9949    -0.3383 C.3     
  22 C22            4.5813    -5.5131    -0.4491 C.3     
  23 N23            3.3877    -6.1680     0.1028 N.3     
  24 C24            2.2021    -5.8766    -0.7142 C.3     
  25 C25            3.5946    -7.6166     0.2325 C.3     
  26 C26            6.2096    -1.7949     1.8366 C.2     
  27 C27            5.9009    -1.3118     3.2303 C.3     
  28 O28            7.2107    -2.4510     1.6291 O.2     
  29 H29           -1.1120     1.6912    -0.5432 H       
  30 H30            1.1926    -1.8842    -0.2468 H       
  31 H31            0.9507     3.0337    -0.5191 H       
  32 H32            3.7339    -2.0148    -1.8482 H       
  33 H33            4.5560    -0.4331    -2.0534 H       
  34 H34           -1.6112    -1.2448    -1.4343 H       
  35 H35           -1.1977    -1.9096     0.1642 H       
  36 H36           -2.1593    -0.4167     0.0428 H       
  37 H37            6.0683     0.8522    -0.7543 H       
  38 H38            7.7962    -2.9206    -1.7391 H       
  39 H39            9.8126    -1.7794    -2.5729 H       
  40 H40            9.9545     0.6778    -2.5027 H       
  41 H41            8.0826     1.9936    -1.5926 H       
  42 H42            5.7363    -3.5185    -1.9815 H       
  43 H43            6.5594    -3.6972    -0.4134 H       
  44 H44            4.3117    -3.7169     0.7093 H       
  45 H45            3.5471    -3.6773    -0.8976 H       
  46 H46            4.6966    -5.7911    -1.4967 H       
  47 H47            5.4613    -5.8307     0.1102 H       
  48 H48            2.3622    -6.2398    -1.7293 H       
  49 H49            1.3329    -6.3735    -0.2833 H       
  50 H50            2.0316    -4.8002    -0.7360 H       
  51 H51            4.4363    -7.8052     0.8988 H       
  52 H52            2.6959    -8.0766     0.6432 H       
  53 H53            3.8051    -8.0428    -0.7484 H       
  54 H54            5.2987    -2.0581     3.7484 H       
  55 H55            6.8319    -1.1543     3.7748 H       
  56 H56            5.3487    -0.3736     3.1756 H       
@<TRIPOS>BOND
   1    1    2 ar
   2    1    6 ar
   3    1   29 1
   4    2    3 ar
   5    2   10 1
   6    3    4 ar
   7    3   30 1
   8    4    5 ar
   9    4    7 1
  10    5    6 ar
  11    5    9 1
  12    6   31 1
  13    7    8 1
  14    7   11 1
  15    8   13 1
  16    8   32 1
  17    8   33 1
  18   10   34 1
  19   10   35 1
  20   10   36 1
  21   11   12 2
  22   12   13 1
  23   12   26 1
  24   13   14 1
  25   13   20 1
  26   14   15 ar
  27   14   16 ar
  28   15   19 ar
  29   15   37 1
  30   16   17 ar
  31   16   38 1
  32   17   18 ar
  33   17   39 1
  34   18   19 ar
  35   18   40 1
  36   19   41 1
  37   20   21 1
  38   20   42 1
  39   20   43 1
  40   21   22 1
  41   21   44 1
  42   21   45 1
  43   22   23 1
  44   22   46 1
  45   22   47 1
  46   23   24 1
  47   23   25 1
  48   24   48 1
  49   24   49 1
  50   24   50 1
  51   25   51 1
  52   25   52 1
  53   25   53 1
  54   26   27 1
  55   26   28 2
  56   27   54 1
  57   27   55 1
  58   27   56 1

#	End of record

