#	Name: ASD03430732
#	Creating user name:	WinNT
#	Creation time:	15. 06. 2019 20:41

#	Modifying user name:	WinNT
#	Modification time:	15. 06. 2019 20:41

#	Program:	/corina/corina34_cracker 3.40 0067  02.08.2006

@<TRIPOS>MOLECULE
ASD03430732
  53   59    0    0    0
SMALL
NO_CHARGES


@<TRIPOS>ATOM
   1 C1             2.7122     0.5200     0.0022 C.ar    
   2 C2             2.1040    -0.8340    -0.0354 C.ar    
   3 C3             2.9352    -1.9450    -0.2546 C.ar    
   4 C4             4.2820    -1.7856    -0.4156 C.ar    
   5 C5             4.8685    -0.4985    -0.3895 C.ar    
   6 C6             4.1476     0.6277    -0.1911 C.ar    
   7 O7             4.9101    -2.9888    -0.5782 O.3     
   8 C8             2.6486    -3.4195    -0.3761 C.3     
   9 C9             3.9442    -3.9794    -0.9769 C.3     
  10 C10            1.0613    -4.6136     0.7964 C.ar    
  11 C11            2.3249    -4.0469     0.9471 C.ar    
  12 C12            1.4595    -3.6960    -1.2500 C.2     
  13 N13            0.5837    -4.3916    -0.4974 N.am    
  14 O14            1.3152    -3.3595    -2.4063 O.2     
  15 C15            2.9967    -4.1415     2.1450 C.ar    
  16 C16            2.4176    -4.8025     3.2142 C.ar    
  17 C17            1.1633    -5.3675     3.0763 C.ar    
  18 C18            0.4864    -5.2764     1.8774 C.ar    
  19 C19           -0.7177    -4.8602    -0.9802 C.3     
  20 N20            0.8328    -0.5826     0.1683 N.2     
  21 O21            0.6810     0.6156     0.2994 O.3     
  22 N22            1.6844     1.2970     0.2237 N.2     
  23 C23           -1.8153    -4.2052    -0.1819 C.ar    
  24 C24           -2.9529    -4.9193     0.1448 C.ar    
  25 C25           -3.9597    -4.3185     0.8771 C.ar    
  26 C26           -3.8286    -3.0036     1.2831 C.ar    
  27 C27           -2.6906    -2.2897     0.9572 C.ar    
  28 C28           -1.6819    -2.8919     0.2286 C.ar    
  29 C29           -0.8725    -4.5013    -2.4357 C.ar    
  30 C30           -0.8195    -5.4896    -3.4007 C.ar    
  31 C31           -0.9614    -5.1604    -4.7357 C.ar    
  32 C32           -1.1568    -3.8429    -5.1057 C.ar    
  33 C33           -1.2106    -2.8547    -4.1407 C.ar    
  34 C34           -1.0730    -3.1845    -2.8053 C.ar    
  35 H35            5.9354    -0.4122    -0.5334 H       
  36 H36            4.6317     1.5931    -0.1770 H       
  37 H37            3.8751    -4.0410    -2.0630 H       
  38 H38            4.1841    -4.9522    -0.5476 H       
  39 H39            3.9766    -3.6999     2.2504 H       
  40 H40            2.9444    -4.8770     4.1540 H       
  41 H41            0.7113    -5.8830     3.9108 H       
  42 H42           -0.4929    -5.7208     1.7772 H       
  43 H43           -0.7802    -5.9422    -0.8642 H       
  44 H44           -3.0552    -5.9466    -0.1724 H       
  45 H45           -4.8488    -4.8762     1.1317 H       
  46 H46           -4.6155    -2.5340     1.8546 H       
  47 H47           -2.5884    -1.2624     1.2741 H       
  48 H48           -0.7912    -2.3354    -0.0228 H       
  49 H49           -0.6669    -6.5190    -3.1116 H       
  50 H50           -0.9194    -5.9325    -5.4897 H       
  51 H51           -1.2669    -3.5856    -6.1488 H       
  52 H52           -1.3629    -1.8253    -4.4298 H       
  53 H53           -1.1189    -2.4129    -2.0510 H       
@<TRIPOS>BOND
   1    1    2 ar
   2    1    6 ar
   3    1   22 2
   4    2    3 ar
   5    2   20 2
   6    3    4 ar
   7    3    8 1
   8    4    5 ar
   9    4    7 1
  10    5    6 ar
  11    5   35 1
  12    6   36 1
  13    7    9 1
  14    8    9 1
  15    8   11 1
  16    8   12 1
  17    9   37 1
  18    9   38 1
  19   10   11 ar
  20   10   13 1
  21   10   18 ar
  22   11   15 ar
  23   12   13 am
  24   12   14 2
  25   13   19 1
  26   15   16 ar
  27   15   39 1
  28   16   17 ar
  29   16   40 1
  30   17   18 ar
  31   17   41 1
  32   18   42 1
  33   19   23 1
  34   19   29 1
  35   19   43 1
  36   20   21 1
  37   21   22 1
  38   23   24 ar
  39   23   28 ar
  40   24   25 ar
  41   24   44 1
  42   25   26 ar
  43   25   45 1
  44   26   27 ar
  45   26   46 1
  46   27   28 ar
  47   27   47 1
  48   28   48 1
  49   29   30 ar
  50   29   34 ar
  51   30   31 ar
  52   30   49 1
  53   31   32 ar
  54   31   50 1
  55   32   33 ar
  56   32   51 1
  57   33   34 ar
  58   33   52 1
  59   34   53 1

#	End of record

