#	Name: ASD09740427
#	Creating user name:	WinNT
#	Creation time:	15. 06. 2019 21:23

#	Modifying user name:	WinNT
#	Modification time:	15. 06. 2019 21:23

#	Program:	/corina/corina34_cracker 3.40 0067  02.08.2006

@<TRIPOS>MOLECULE
ASD09740427
  65   69    0    0    0
SMALL
NO_CHARGES


@<TRIPOS>ATOM
   1 N1            -0.0151     1.3053     0.0121 N.2     
   2 C2             0.0028    -0.0042     0.0021 C.2     
   3 C3             1.1361     1.9169    -0.0038 C.2     
   4 S4             2.4286     0.7206    -0.0357 S.3     
   5 C5             1.2290    -0.5707    -0.0239 C.2     
   6 C6             1.3265     3.3822     0.0030 C.ar    
   7 C7             0.2206     4.2279     0.0287 C.ar    
   8 C8             2.6175     3.9196    -0.0106 C.ar    
   9 C9             2.8009     5.2852    -0.0034 C.ar    
  10 C10            1.7059     6.1376     0.0168 C.ar    
  11 C11            0.4063     5.6097     0.0354 C.ar    
  12 O12            1.8923     7.4813     0.0243 O.3     
  13 C13            3.2384     7.9489     0.1316 C.3     
  14 C14            3.8772     7.9873    -1.2582 C.3     
  15 C15            3.2433     9.3552     0.7341 C.3     
  16 C16           -0.7254     6.4869     0.0564 C.1     
  17 N17           -1.6232     7.1827     0.0730 N.1     
  18 C18            1.5148    -2.0206    -0.0391 C.ar    
  19 C19            2.3967    -2.5503    -0.9856 C.ar    
  20 C20            2.6592    -3.9048    -0.9944 C.ar    
  21 C21            2.0487    -4.7338    -0.0661 C.ar    
  22 C22            1.1754    -4.2148     0.8718 C.ar    
  23 C23            0.9092    -2.8617     0.8948 C.ar    
  24 C24            3.1788    -1.8686    -2.0875 C.3     
  25 C25            4.2759    -2.8780    -2.4875 C.3     
  26 C26            3.6368    -4.2296    -2.1039 C.3     
  27 N27            2.9303    -4.8020    -3.2525 N.am    
  28 C28            2.7392    -6.1339    -3.3307 C.2     
  29 C29            2.0124    -6.7227    -4.5122 C.3     
  30 N30            1.9351    -8.1820    -4.3620 N.3     
  31 O31            3.1521    -6.8584    -2.4501 O.2     
  32 C32            1.0315    -8.7696    -5.3680 C.3     
  33 C33            3.2696    -8.8011    -4.5090 C.3     
  34 C34            2.9986   -10.1705    -5.1805 C.3     
  35 C35            1.8446    -9.8184    -6.1557 C.3     
  36 H36           -0.9029    -0.5924     0.0141 H       
  37 H37           -0.7773     3.8150     0.0429 H       
  38 H38            3.4739     3.2618    -0.0263 H       
  39 H39            3.8006     5.6937    -0.0132 H       
  40 H40            3.8066     7.2763     0.7742 H       
  41 H41            4.9040     8.3439    -1.1763 H       
  42 H42            3.8738     6.9854    -1.6874 H       
  43 H43            3.3091     8.6598    -1.9008 H       
  44 H44            2.7882     9.3279     1.7242 H       
  45 H45            4.2700     9.7119     0.8159 H       
  46 H46            2.6751    10.0278     0.0915 H       
  47 H47            2.2566    -5.7935    -0.0758 H       
  48 H48            0.7047    -4.8693     1.5904 H       
  49 H49            0.2273    -2.4560     1.6276 H       
  50 H50            2.5299    -1.6585    -2.9377 H       
  51 H51            3.6291    -0.9474    -1.7176 H       
  52 H52            4.4726    -2.8324    -3.5586 H       
  53 H53            5.1884    -2.7050    -1.9170 H       
  54 H54            4.3998    -4.9205    -1.7455 H       
  55 H55            2.6000    -4.2225    -3.9568 H       
  56 H56            1.0053    -6.3088    -4.5625 H       
  57 H57            2.5511    -6.4798    -5.4281 H       
  58 H58            0.1877    -9.2501    -4.8729 H       
  59 H59            0.6743    -7.9930    -6.0443 H       
  60 H60            3.9055    -8.1857    -5.1454 H       
  61 H61            3.7321    -8.9424    -3.5321 H       
  62 H62            3.8765   -10.5194    -5.7241 H       
  63 H63            2.6773   -10.9089    -4.4458 H       
  64 H64            1.2367   -10.6981    -6.3671 H       
  65 H65            2.2367    -9.3890    -7.0777 H       
@<TRIPOS>BOND
   1    1    2 1
   2    1    3 2
   3    2    5 2
   4    2   36 1
   5    3    4 1
   6    3    6 1
   7    4    5 1
   8    5   18 1
   9    6    7 ar
  10    6    8 ar
  11    7   11 ar
  12    7   37 1
  13    8    9 ar
  14    8   38 1
  15    9   10 ar
  16    9   39 1
  17   10   11 ar
  18   10   12 1
  19   11   16 1
  20   12   13 1
  21   13   14 1
  22   13   15 1
  23   13   40 1
  24   14   41 1
  25   14   42 1
  26   14   43 1
  27   15   44 1
  28   15   45 1
  29   15   46 1
  30   16   17 3
  31   18   19 ar
  32   18   23 ar
  33   19   20 ar
  34   19   24 1
  35   20   21 ar
  36   20   26 1
  37   21   22 ar
  38   21   47 1
  39   22   23 ar
  40   22   48 1
  41   23   49 1
  42   24   25 1
  43   24   50 1
  44   24   51 1
  45   25   26 1
  46   25   52 1
  47   25   53 1
  48   26   27 1
  49   26   54 1
  50   27   28 am
  51   27   55 1
  52   28   29 1
  53   28   31 2
  54   29   30 1
  55   29   56 1
  56   29   57 1
  57   30   32 1
  58   30   33 1
  59   32   35 1
  60   32   58 1
  61   32   59 1
  62   33   34 1
  63   33   60 1
  64   33   61 1
  65   34   35 1
  66   34   62 1
  67   34   63 1
  68   35   64 1
  69   35   65 1

#	End of record

