#	Name: ASD05720277
#	Creating user name:	WinNT
#	Creation time:	15. 06. 2019 21:02

#	Modifying user name:	WinNT
#	Modification time:	15. 06. 2019 21:02

#	Program:	/corina/corina34_cracker 3.40 0067  02.08.2006

@<TRIPOS>MOLECULE
ASD05720277
  72   76    0    0    0
SMALL
NO_CHARGES


@<TRIPOS>ATOM
   1 C1             0.8829     1.1164     0.3688 C.2     
   2 N2             0.9725    -0.1038    -0.1763 N.am    
   3 C3             2.2409    -0.2122    -0.9125 C.3     
   4 C4             2.9023     1.1653    -0.7132 C.3     
   5 N5             1.9364     1.9036     0.1141 N.am    
   6 O6            -0.0705     1.4785     1.0305 O.2     
   7 C7             1.9795    -0.4726    -2.3973 C.3     
   8 C8             1.3402    -1.8521    -2.5684 C.3     
   9 C9             1.0342     0.5989    -2.9444 C.3     
  10 C10            2.1002     3.2811     0.5850 C.3     
  11 N11            2.8238     4.6522     2.4946 N.3     
  12 C12            2.6912     3.2709     1.9962 C.3     
  13 C13            4.1068     2.6571     1.9681 C.3     
  14 C14            4.8866     3.5305     2.9860 C.3     
  15 C15            4.2540     4.9248     2.7512 C.3     
  16 C16            2.2687     5.6142     1.5332 C.3     
  17 C17            2.1852     6.9960     2.1848 C.3     
  18 C18           -0.6264    -3.2957    -0.4178 C.2     
  19 N19            0.2799    -2.3184    -0.5182 N.2     
  20 C20            0.0191    -1.1070    -0.0642 C.2     
  21 C21           -1.2268    -0.8311     0.5352 C.2     
  22 C22           -2.1461    -1.8176     0.6384 C.2     
  23 N23           -1.8468    -3.0625     0.1587 N.pl3   
  24 N24           -2.5755    -4.2567     0.1225 N.2     
  25 C25           -1.8508    -5.1887    -0.4462 C.2     
  26 C26           -0.6154    -4.6404    -0.8119 C.2     
  27 C27            0.4952    -5.3491    -1.4864 C.ar    
  28 C28            0.9450    -6.5744    -0.9908 C.ar    
  29 C29            1.9780    -7.2334    -1.6191 C.ar    
  30 C30            2.5752    -6.6770    -2.7501 C.ar    
  31 C31            2.1263    -5.4529    -3.2458 C.ar    
  32 C32            1.0896    -4.7956    -2.6219 C.ar    
  33 N33            5.2983    -7.9384    -4.7926 N.pl3   
  34 N34            4.3293    -6.9665    -4.4946 N.2     
  35 C35            3.6883    -7.3869    -3.4256 C.2     
  36 N36            4.2080    -8.5631    -3.0483 N.2     
  37 C37            5.1733    -8.9013    -3.8617 C.2     
  38 H38            2.8631    -1.0003    -0.4886 H       
  39 H39            3.8530     1.0612    -0.1903 H       
  40 H40            3.0445     1.6638    -1.6720 H       
  41 H41            2.9221    -0.4387    -2.9436 H       
  42 H42            1.4437    -2.1746    -3.6044 H       
  43 H43            1.8385    -2.5672    -1.9138 H       
  44 H44            0.2830    -1.7974    -2.3087 H       
  45 H45            1.4896     1.5817    -2.8225 H       
  46 H46            0.8480     0.4134    -4.0022 H       
  47 H47            0.0916     0.5650    -2.3981 H       
  48 H48            2.7714     3.8171    -0.0861 H       
  49 H49            1.1299     3.7775     0.6010 H       
  50 H50            2.0508     2.6954     2.6646 H       
  51 H51            4.0823     1.6167     2.2921 H       
  52 H52            4.5439     2.7418     0.9732 H       
  53 H53            4.7128     3.1897     4.0066 H       
  54 H54            5.9520     3.5412     2.7557 H       
  55 H55            4.7094     5.4074     1.8864 H       
  56 H56            4.3684     5.5477     3.6384 H       
  57 H57            2.9137     5.6646     0.6559 H       
  58 H58            1.2712     5.2933     1.2328 H       
  59 H59            1.5402     6.9457     3.0620 H       
  60 H60            3.1827     7.3169     2.4852 H       
  61 H61            1.7733     7.7099     1.4715 H       
  62 H62           -1.4449     0.1585     0.9086 H       
  63 H63           -3.1056    -1.6243     1.0949 H       
  64 H64           -2.1576    -6.2112    -0.6093 H       
  65 H65            0.4832    -7.0050    -0.1146 H       
  66 H66            2.3260    -8.1812    -1.2358 H       
  67 H67            2.5891    -5.0226    -4.1216 H       
  68 H68            0.7394    -3.8498    -3.0082 H       
  69 H69            5.9308    -7.9207    -5.5278 H       
  70 H70            5.7687    -9.8000    -3.7975 H       
  71 Cl71          10.9520    12.7099     9.0066 Cl      
  72 H72           10.9520    14.0799     9.0066 H       
@<TRIPOS>BOND
   1    1    2 am
   2    1    5 am
   3    1    6 2
   4    2    3 1
   5    2   20 1
   6    3    4 1
   7    3    7 1
   8    3   38 1
   9    4    5 1
  10    4   39 1
  11    4   40 1
  12    5   10 1
  13    7    8 1
  14    7    9 1
  15    7   41 1
  16    8   42 1
  17    8   43 1
  18    8   44 1
  19    9   45 1
  20    9   46 1
  21    9   47 1
  22   10   12 1
  23   10   48 1
  24   10   49 1
  25   11   12 1
  26   11   15 1
  27   11   16 1
  28   12   13 1
  29   12   50 1
  30   13   14 1
  31   13   51 1
  32   13   52 1
  33   14   15 1
  34   14   53 1
  35   14   54 1
  36   15   55 1
  37   15   56 1
  38   16   17 1
  39   16   57 1
  40   16   58 1
  41   17   59 1
  42   17   60 1
  43   17   61 1
  44   18   19 1
  45   18   23 1
  46   18   26 2
  47   19   20 2
  48   20   21 1
  49   21   22 2
  50   21   62 1
  51   22   23 1
  52   22   63 1
  53   23   24 1
  54   24   25 2
  55   25   26 1
  56   25   64 1
  57   26   27 1
  58   27   28 ar
  59   27   32 ar
  60   28   29 ar
  61   28   65 1
  62   29   30 ar
  63   29   66 1
  64   30   31 ar
  65   30   35 1
  66   31   32 ar
  67   31   67 1
  68   32   68 1
  69   33   34 1
  70   33   37 1
  71   33   69 1
  72   34   35 2
  73   35   36 1
  74   36   37 2
  75   37   70 1
  76   71   72 1

#	End of record

