#	Name: ASD01380011
#	Creating user name:	WinNT
#	Creation time:	15. 06. 2019 19:16

#	Modifying user name:	WinNT
#	Modification time:	15. 06. 2019 19:16

#	Program:	/corina/corina34_cracker 3.40 0067  02.08.2006

@<TRIPOS>MOLECULE
ASD01380011
  63   66    0    0    0
SMALL
NO_CHARGES


@<TRIPOS>ATOM
   1 C1            -0.0132     1.4567     0.0474 C.3     
   2 N2             0.0043    -0.0082     0.0478 N.pl3   
   3 C3            -1.1896    -0.7167     0.0325 C.ar    
   4 C4            -2.4007    -0.0468     0.1521 C.ar    
   5 C5            -3.5860    -0.7532     0.1367 C.ar    
   6 C6            -3.5795    -2.1326     0.0028 C.ar    
   7 C7            -2.3887    -2.8150    -0.1166 C.ar    
   8 C8            -1.1797    -2.1139    -0.1096 C.ar    
   9 C9             0.0972    -2.8369    -0.2369 C.2     
  10 O10            1.1379    -2.2183    -0.3417 O.2     
  11 O11            0.1113    -4.1845    -0.2371 O.3     
  12 C12            1.4055    -4.8301    -0.3661 C.3     
  13 C13            1.4052    -6.1890     0.3605 C.3     
  14 C14            0.0590    -6.4079     1.0539 C.3     
  15 O15            0.1081    -7.6134     1.8197 O.3     
  16 P16           -1.1383    -8.1553     2.6829 P.3     
  17 O17           -2.3259    -8.2817     1.8088 O.2     
  18 O18           -0.7745    -9.5947     3.3055 O.3     
  19 P19           -1.6490   -10.8158     3.8853 P.3     
  20 O20           -2.7838   -11.0861     2.9745 O.2     
  21 O21           -0.7266   -12.1305     3.9981 O.3     
  22 P22           -1.0344   -13.7078     4.0963 P.3     
  23 S23           -2.0550   -14.0479     5.6180 S.2     
  24 O24           -1.8473   -14.1783     2.7887 O.3     
  25 O25            0.3523   -14.5206     4.1875 O.3     
  26 O26           -2.2116   -10.4283     5.3432 O.3     
  27 O27           -1.4565    -7.1201     3.8742 O.3     
  28 O28            1.6136    -7.2055    -0.6342 O.3     
  29 C29            2.3401    -6.5904    -1.7198 C.3     
  30 C30            1.6860    -5.1908    -1.8453 C.3     
  31 O31            0.4699    -5.2614    -2.5924 O.3     
  32 N32            2.1640    -7.3549    -2.9570 N.pl3   
  33 C33            1.1268    -8.1900    -3.2477 C.2     
  34 N34            1.2922    -8.7020    -4.4332 N.2     
  35 C35            2.4404    -8.2272    -4.9695 C.2     
  36 C36            3.0075    -7.3566    -4.0338 C.2     
  37 N37            4.1643    -6.7419    -4.3179 N.2     
  38 C38            4.7741    -6.9396    -5.4530 C.2     
  39 N39            4.2785    -7.7706    -6.4043 N.am    
  40 C40            3.1147    -8.4273    -6.1999 C.2     
  41 O41            2.6612    -9.1764    -7.0479 O.2     
  42 H42            1.0100     1.8322     0.0605 H       
  43 H43           -0.5198     1.8137    -0.8492 H       
  44 H44           -0.5427     1.8140     0.9306 H       
  45 H45            0.8500    -0.4832     0.0587 H       
  46 H46           -2.4146     1.0279     0.2576 H       
  47 H47           -4.5249    -0.2277     0.2300 H       
  48 H48           -4.5131    -2.6755    -0.0077 H       
  49 H49           -2.3897    -3.8900    -0.2204 H       
  50 H50            2.1925    -4.1871     0.0277 H       
  51 H51            2.2094    -6.2164     1.0958 H       
  52 H52           -0.1507    -5.5663     1.7141 H       
  53 H53           -0.7278    -6.4859     0.3036 H       
  54 H54           -1.3750   -14.0309     1.9578 H       
  55 H55            0.2429   -15.4794     4.2492 H       
  56 H56           -1.5215   -10.2377     5.9932 H       
  57 H57           -0.7207    -6.9880     4.4875 H       
  58 H58            3.3973    -6.4990    -1.4710 H       
  59 H59            2.3766    -4.4777    -2.2953 H       
  60 H60            0.5842    -5.5708    -3.5014 H       
  61 H61            0.2932    -8.3963    -2.5928 H       
  62 H62            5.7043    -6.4248    -5.6426 H       
  63 H63            4.7607    -7.8919    -7.2372 H       
@<TRIPOS>BOND
   1    1    2 1
   2    1   42 1
   3    1   43 1
   4    1   44 1
   5    2    3 1
   6    2   45 1
   7    3    4 ar
   8    3    8 ar
   9    4    5 ar
  10    4   46 1
  11    5    6 ar
  12    5   47 1
  13    6    7 ar
  14    6   48 1
  15    7    8 ar
  16    7   49 1
  17    8    9 1
  18    9   10 2
  19    9   11 1
  20   11   12 1
  21   12   13 1
  22   12   30 1
  23   12   50 1
  24   13   14 1
  25   13   28 1
  26   13   51 1
  27   14   15 1
  28   14   52 1
  29   14   53 1
  30   15   16 1
  31   16   17 2
  32   16   18 1
  33   16   27 1
  34   18   19 1
  35   19   20 2
  36   19   21 1
  37   19   26 1
  38   21   22 1
  39   22   23 2
  40   22   24 1
  41   22   25 1
  42   24   54 1
  43   25   55 1
  44   26   56 1
  45   27   57 1
  46   28   29 1
  47   29   30 1
  48   29   32 1
  49   29   58 1
  50   30   31 1
  51   30   59 1
  52   31   60 1
  53   32   33 1
  54   32   36 1
  55   33   34 2
  56   33   61 1
  57   34   35 1
  58   35   36 2
  59   35   40 1
  60   36   37 1
  61   37   38 2
  62   38   39 1
  63   38   62 1
  64   39   40 am
  65   39   63 1
  66   40   41 2

#	End of record

