#	Name: ASD08710087
#	Creating user name:	WinNT
#	Creation time:	15. 06. 2019 21:19

#	Modifying user name:	WinNT
#	Modification time:	15. 06. 2019 21:19

#	Program:	/corina/corina34_cracker 3.40 0067  02.08.2006

@<TRIPOS>MOLECULE
ASD08710087
  49   51    0    0    0
SMALL
NO_CHARGES


@<TRIPOS>ATOM
   1 N1            -0.3204     1.5449     0.4601 N.am    
   2 C2            -0.2567     0.0774     0.4107 C.3     
   3 C3             0.9103    -0.3322    -0.4963 C.3     
   4 N4             2.1077     0.4154    -0.0875 N.am    
   5 C5             2.0439     1.8828    -0.0381 C.3     
   6 C6             0.8770     2.2925     0.8689 C.3     
   7 S7             3.5036    -0.3814     0.3110 S.o2    
   8 O8             4.2398     0.4953     1.1528 O.2     
   9 O9             3.1197    -1.6930     0.7007 O.2     
  10 C10            4.4443    -0.5572    -1.1684 C.ar    
  11 C11            5.3498     0.4219    -1.5322 C.ar    
  12 C12            6.0878     0.2840    -2.6929 C.ar    
  13 C13            5.9206    -0.8332    -3.4896 C.ar    
  14 C14            5.0158    -1.8128    -3.1254 C.ar    
  15 C15            4.2810    -1.6770    -1.9624 C.ar    
  16 C16            6.7245    -0.9831    -4.7555 C.3     
  17 F17            7.9199    -1.6524    -4.4723 F       
  18 F18            5.9886    -1.7185    -5.6909 F       
  19 F19            7.0111     0.2824    -5.2784 F       
  20 C20           -1.5661    -0.4747    -0.1563 C.3     
  21 C21           -1.4550     2.1936     0.1309 C.2     
  22 O22           -2.4021     1.5745    -0.3133 O.2     
  23 C23           -2.0204     4.4698    -0.7218 C.ar    
  24 C24           -1.5475     3.6576     0.3099 C.ar    
  25 C25           -1.1626     4.2527     1.5178 C.ar    
  26 C26           -1.2688     5.6266     1.6351 C.ar    
  27 C27           -1.7480     6.3632     0.5644 C.ar    
  28 N28           -2.1031     5.7742    -0.5631 N.ar    
  29 C29           -2.4336     3.8491    -2.0314 C.3     
  30 Cl30          -1.8832     8.0881     0.7065 Cl      
  31 H31           -0.0953    -0.3157     1.4145 H       
  32 H32            1.0944    -1.4017    -0.3949 H       
  33 H33            0.6682    -0.0968    -1.5327 H       
  34 H34            2.9768     2.2762     0.3659 H       
  35 H35            1.8825     2.2760    -1.0419 H       
  36 H36            0.6928     3.3620     0.7675 H       
  37 H37            1.1191     2.0570     1.9053 H       
  38 H38            5.4804     1.2947    -0.9097 H       
  39 H39            6.7947     1.0493    -2.9774 H       
  40 H40            4.8850    -2.6855    -3.7480 H       
  41 H41            3.5767    -2.4440    -1.6759 H       
  42 H42           -1.7331    -0.0631    -1.1518 H       
  43 H43           -1.5059    -1.5613    -0.2178 H       
  44 H44           -2.3922    -0.1929     0.4966 H       
  45 H45           -0.7926     3.6540     2.3370 H       
  46 H46           -0.9816     6.1199     2.5519 H       
  47 H47           -3.5053     3.6510    -2.0175 H       
  48 H48           -2.2012     4.5336    -2.8473 H       
  49 H49           -1.8930     2.9138    -2.1768 H       
@<TRIPOS>BOND
   1    1    2 1
   2    1    6 1
   3    1   21 am
   4    2    3 1
   5    2   20 1
   6    2   31 1
   7    3    4 1
   8    3   32 1
   9    3   33 1
  10    4    5 1
  11    4    7 am
  12    5    6 1
  13    5   34 1
  14    5   35 1
  15    6   36 1
  16    6   37 1
  17    7    8 2
  18    7    9 2
  19    7   10 1
  20   10   11 ar
  21   10   15 ar
  22   11   12 ar
  23   11   38 1
  24   12   13 ar
  25   12   39 1
  26   13   14 ar
  27   13   16 1
  28   14   15 ar
  29   14   40 1
  30   15   41 1
  31   16   17 1
  32   16   18 1
  33   16   19 1
  34   20   42 1
  35   20   43 1
  36   20   44 1
  37   21   22 2
  38   21   24 1
  39   23   24 ar
  40   23   28 ar
  41   23   29 1
  42   24   25 ar
  43   25   26 ar
  44   25   45 1
  45   26   27 ar
  46   26   46 1
  47   27   28 ar
  48   27   30 1
  49   29   47 1
  50   29   48 1
  51   29   49 1

#	End of record

