#	Name: ASD00840585
#	Creating user name:	WinNT
#	Creation time:	15. 06. 2019 18:39

#	Modifying user name:	WinNT
#	Modification time:	15. 06. 2019 18:39

#	Program:	/corina/corina34_cracker 3.40 0067  02.08.2006

@<TRIPOS>MOLECULE
ASD00840585
  85   90    0    0    0
SMALL
NO_CHARGES


@<TRIPOS>ATOM
   1 N1             1.0627     1.4574    -0.7518 N.ar    
   2 C2             1.3248     0.1656    -0.8591 C.ar    
   3 C3             1.2446    -0.6674     0.2497 C.ar    
   4 C4             0.8860    -0.1280     1.4725 C.ar    
   5 C5             0.6190     1.2326     1.5433 C.ar    
   6 C6             0.7184     2.0006     0.4005 C.ar    
   7 C7             1.5436    -2.1390     0.1225 C.3     
   8 C8             1.2615    -2.8523     1.4277 C.2     
   9 C9             0.7239    -2.7549    -1.0131 C.3     
  10 C10           -0.7383    -2.4653    -0.7915 C.2     
  11 N11           -1.6621    -2.9868    -1.6228 N.am    
  12 O12           -1.0837    -1.7628     0.1348 O.2     
  13 C13           -3.0797    -2.6248    -1.4883 C.3     
  14 C14           -3.9074    -3.9085    -1.3715 C.3     
  15 C15           -3.6014    -4.8184    -2.5634 C.3     
  16 C16           -2.1187    -5.1970    -2.5509 C.3     
  17 C17           -1.2698    -3.9235    -2.6847 C.3     
  18 C18           -4.4521    -6.0865    -2.4682 C.3     
  19 C19           -5.9361    -5.7094    -2.4823 C.3     
  20 C20           -6.7818    -6.9845    -2.4484 C.3     
  21 N21           -6.4591    -7.8185    -3.6132 N.3     
  22 C22           -5.0502    -8.2322    -3.5962 C.3     
  23 C23           -4.1529    -6.9943    -3.6644 C.3     
  24 H24           -7.0706    -8.6194    -3.6650 H       
  25 O25            0.1895    -2.9281     1.9900 O.2     
  26 N26            2.4217    -3.3852     1.8463 N.am    
  27 C27            3.0211    -2.3613    -0.1061 C.ar    
  28 C28            3.4738    -3.1157     0.9694 C.ar    
  29 C29            3.8819    -1.9713    -1.1071 C.ar    
  30 C30            5.2178    -2.3315    -1.0489 C.ar    
  31 C31            5.6820    -3.0838     0.0184 C.ar    
  32 C32            4.8184    -3.4754     1.0234 C.ar    
  33 Cl33           6.3073    -1.8427    -2.3091 Cl      
  34 F34            6.9851    -3.4359     0.0765 F       
  35 C35            2.2932    -5.9505     2.8349 C.ar    
  36 C36            1.0398    -6.3527     2.3976 C.ar    
  37 C37            3.3144    -6.8745     2.9455 C.ar    
  38 C38            3.0880    -8.1989     2.6202 C.ar    
  39 C39            1.8393    -8.6025     2.1840 C.ar    
  40 C40            0.8150    -7.6827     2.0722 C.ar    
  41 H41            1.6649    -9.6377     1.9305 H       
  42 O42            0.0336    -5.4458     2.2884 O.3     
  43 C43           -1.2305    -5.9311     1.8317 C.3     
  44 S44            2.5848    -4.2611     3.2422 S.o2    
  45 O45            3.9526    -4.1689     3.6163 O.2     
  46 O46            1.5180    -3.8635     4.0924 O.2     
  47 O47            1.6748    -0.3512    -2.0638 O.3     
  48 C48            2.1671    -0.1893    -4.4243 C.3     
  49 C49            1.6319     0.5325    -3.1860 C.3     
  50 H50            0.8152    -0.7512     2.3517 H       
  51 H51            0.3362     1.6852     2.4822 H       
  52 H52            0.5120     3.0596     0.4502 H       
  53 H53            1.0396    -2.3249    -1.9637 H       
  54 H54            0.8820    -3.8333    -1.0318 H       
  55 H55           -3.2185    -2.0178    -0.5937 H       
  56 H56           -3.3983    -2.0632    -2.3665 H       
  57 H57           -3.6514    -4.4235    -0.4455 H       
  58 H58           -4.9683    -3.6582    -1.3677 H       
  59 H59           -3.8345    -4.2937    -3.4900 H       
  60 H60           -1.8795    -5.6998    -1.6138 H       
  61 H61           -1.9064    -5.8637    -3.3866 H       
  62 H62           -1.4421    -3.4704    -3.6610 H       
  63 H63           -0.2147    -4.1748    -2.5772 H       
  64 H64           -4.2189    -6.6130    -1.5428 H       
  65 H65           -6.1645    -5.0979    -1.6094 H       
  66 H66           -6.1603    -5.1481    -3.3894 H       
  67 H67           -6.5671    -7.5384    -1.5345 H       
  68 H68           -7.8389    -6.7199    -2.4728 H       
  69 H69           -4.8437    -8.7802    -2.6769 H       
  70 H70           -4.8497    -8.8738    -4.4542 H       
  71 H71           -4.3491    -6.4532    -4.5900 H       
  72 H72           -3.1073    -7.3009    -3.6360 H       
  73 H73            3.5157    -1.3854    -1.9371 H       
  74 H74            5.1866    -4.0613     1.8525 H       
  75 H75            4.2905    -6.5618     3.2859 H       
  76 H76            3.8877    -8.9196     2.7066 H       
  77 H77           -0.1602    -7.9984     1.7321 H       
  78 H78           -1.1162    -6.3628     0.8374 H       
  79 H79           -1.5968    -6.6936     2.5190 H       
  80 H80           -1.9426    -5.1070     1.7903 H       
  81 H81            3.1641    -0.5774    -4.2161 H       
  82 H82            1.5021    -1.0143    -4.6797 H       
  83 H83            2.2163     0.5096    -5.2593 H       
  84 H84            0.6027     0.8444    -3.3637 H       
  85 H85            2.2471     1.4089    -2.9820 H       
@<TRIPOS>BOND
   1    1    2 ar
   2    1    6 ar
   3    2    3 ar
   4    2   47 1
   5    3    4 ar
   6    3    7 1
   7    4    5 ar
   8    4   50 1
   9    5    6 ar
  10    5   51 1
  11    6   52 1
  12    7    8 1
  13    7    9 1
  14    7   27 1
  15    8   25 2
  16    8   26 am
  17    9   10 1
  18    9   53 1
  19    9   54 1
  20   10   11 am
  21   10   12 2
  22   11   13 1
  23   11   17 1
  24   13   14 1
  25   13   55 1
  26   13   56 1
  27   14   15 1
  28   14   57 1
  29   14   58 1
  30   15   16 1
  31   15   18 1
  32   15   59 1
  33   16   17 1
  34   16   60 1
  35   16   61 1
  36   17   62 1
  37   17   63 1
  38   18   19 1
  39   18   23 1
  40   18   64 1
  41   19   20 1
  42   19   65 1
  43   19   66 1
  44   20   21 1
  45   20   67 1
  46   20   68 1
  47   21   22 1
  48   21   24 1
  49   22   23 1
  50   22   69 1
  51   22   70 1
  52   23   71 1
  53   23   72 1
  54   26   44 am
  55   26   28 1
  56   27   28 ar
  57   27   29 ar
  58   28   32 ar
  59   29   30 ar
  60   29   73 1
  61   30   31 ar
  62   30   33 1
  63   31   32 ar
  64   31   34 1
  65   32   74 1
  66   35   36 ar
  67   35   37 ar
  68   35   44 1
  69   36   42 1
  70   36   40 ar
  71   37   38 ar
  72   37   75 1
  73   38   39 ar
  74   38   76 1
  75   39   40 ar
  76   39   41 1
  77   40   77 1
  78   42   43 1
  79   43   78 1
  80   43   79 1
  81   43   80 1
  82   44   45 2
  83   44   46 2
  84   47   49 1
  85   48   49 1
  86   48   81 1
  87   48   82 1
  88   48   83 1
  89   49   84 1
  90   49   85 1

#	End of record

