#	Name: ASD01815928
#	Creating user name:	WinNT
#	Creation time:	15. 06. 2019 19:34

#	Modifying user name:	WinNT
#	Modification time:	15. 06. 2019 19:34

#	Program:	/corina/corina34_cracker 3.40 0067  02.08.2006

@<TRIPOS>MOLECULE
ASD01815928
  71   77    0    0    0
SMALL
NO_CHARGES


@<TRIPOS>ATOM
   1 C1            -0.5536     2.1400    -1.6845 C.ar    
   2 C2            -0.7865     0.7757    -1.7420 C.ar    
   3 C3             0.2284    -0.1234    -1.4787 C.ar    
   4 C4             1.5010     0.3371    -1.1516 C.ar    
   5 C5             1.7342     1.7207    -1.0941 C.ar    
   6 C6             0.7023     2.6178    -1.3618 C.ar    
   7 N7             2.5228    -0.5595    -0.8860 N.pl3   
   8 C8             3.7681    -0.1743    -0.5653 C.2     
   9 C9             4.1138     1.1516    -0.4787 C.2     
  10 C10            3.0896     2.1870    -0.7457 C.2     
  11 C11            5.3317     1.8926    -0.1658 C.2     
  12 N12            5.0088     3.2011    -0.2523 N.am    
  13 N13            3.6635     3.3468    -0.6001 N.2     
  14 C14            5.8953     4.2602    -0.0256 C.ar    
  15 O15            6.4223     1.4241     0.1173 O.2     
  16 C16            2.2311    -1.9933    -0.9580 C.3     
  17 C17            2.4815    -2.4872    -2.3595 C.ar    
  18 C18            3.7612    -2.8371    -2.7495 C.ar    
  19 C19            3.9940    -3.2897    -4.0335 C.ar    
  20 C20            2.9414    -3.3935    -4.9329 C.ar    
  21 C21            1.6576    -3.0419    -4.5383 C.ar    
  22 C22            1.4302    -2.5950    -3.2513 C.ar    
  23 N23            3.1745    -3.8521    -6.2369 N.pl3   
  24 C24            2.2439    -3.9999    -7.2068 C.2     
  25 F25            0.9286     3.9486    -1.3065 F       
  26 F26           -0.0141    -1.4511    -1.5382 F       
  27 C27            2.8715    -4.4639    -8.3123 C.2     
  28 C28            4.2302    -4.6046    -8.0091 C.2     
  29 N29            4.4138    -4.2326    -6.7679 N.2     
  30 C30            6.7225     4.7063    -1.0480 C.ar    
  31 C31            7.5963     5.7516    -0.8210 C.ar    
  32 C32            7.6483     6.3535     0.4228 C.ar    
  33 C33            6.8258     5.9117     1.4432 C.ar    
  34 C34            5.9456     4.8712     1.2211 C.ar    
  35 C35            5.0498     4.3904     2.3334 C.3     
  36 N36            5.4179     5.0656     3.5851 N.3     
  37 C37            4.3436     4.9505     4.5812 C.3     
  38 C38            4.7316     5.7321     5.8386 C.3     
  39 C39            7.0708     5.3199     5.3730 C.3     
  40 C40            6.6829     4.5384     4.1156 C.3     
  41 N41            5.9966     5.2048     6.3691 N.3     
  42 C42            6.3646     5.8801     7.6208 C.3     
  43 H43           -1.3548     2.8324    -1.8970 H       
  44 H44           -1.7713     0.4115    -1.9947 H       
  45 H45            4.5175    -0.9270    -0.3700 H       
  46 H46            2.8761    -2.5306    -0.2627 H       
  47 H47            1.1879    -2.1657    -0.6930 H       
  48 H48            4.5796    -2.7561    -2.0494 H       
  49 H49            4.9938    -3.5621    -4.3377 H       
  50 H50            0.8369    -3.1213    -5.2358 H       
  51 H51            0.4318    -2.3213    -2.9438 H       
  52 H52            1.1891    -3.7866    -7.1154 H       
  53 H53            2.4059    -4.6863    -9.2610 H       
  54 H54            4.9964    -4.9555    -8.6846 H       
  55 H55            6.6829     4.2361    -2.0195 H       
  56 H56            8.2399     6.0990    -1.6157 H       
  57 H57            8.3329     7.1703     0.5979 H       
  58 H58            6.8691     6.3837     2.4136 H       
  59 H59            4.0124     4.6187     2.0889 H       
  60 H60            5.1661     3.3133     2.4538 H       
  61 H61            3.4207     5.3589     4.1695 H       
  62 H62            4.1953     3.9013     4.8365 H       
  63 H63            4.8533     6.7860     5.5886 H       
  64 H64            3.9491     5.6242     6.5897 H       
  65 H65            7.9938     4.9116     5.7847 H       
  66 H66            7.2191     6.3692     5.1177 H       
  67 H67            6.5612     3.4844     4.3657 H       
  68 H68            7.4653     4.6462     3.3645 H       
  69 H69            5.5817     5.7223     8.3626 H       
  70 H70            7.3044     5.4708     7.9916 H       
  71 H71            6.4810     6.9481     7.4368 H       
@<TRIPOS>BOND
   1    1    2 ar
   2    1    6 ar
   3    1   43 1
   4    2    3 ar
   5    2   44 1
   6    3    4 ar
   7    3   26 1
   8    4    5 ar
   9    4    7 1
  10    5    6 ar
  11    5   10 1
  12    6   25 1
  13    7    8 1
  14    7   16 1
  15    8    9 2
  16    8   45 1
  17    9   10 1
  18    9   11 1
  19   10   13 2
  20   11   12 am
  21   11   15 2
  22   12   13 1
  23   12   14 1
  24   14   30 ar
  25   14   34 ar
  26   16   17 1
  27   16   46 1
  28   16   47 1
  29   17   18 ar
  30   17   22 ar
  31   18   19 ar
  32   18   48 1
  33   19   20 ar
  34   19   49 1
  35   20   21 ar
  36   20   23 1
  37   21   22 ar
  38   21   50 1
  39   22   51 1
  40   23   24 1
  41   23   29 1
  42   24   27 2
  43   24   52 1
  44   27   28 1
  45   27   53 1
  46   28   29 2
  47   28   54 1
  48   30   31 ar
  49   30   55 1
  50   31   32 ar
  51   31   56 1
  52   32   33 ar
  53   32   57 1
  54   33   34 ar
  55   33   58 1
  56   34   35 1
  57   35   36 1
  58   35   59 1
  59   35   60 1
  60   36   37 1
  61   36   40 1
  62   37   38 1
  63   37   61 1
  64   37   62 1
  65   38   41 1
  66   38   63 1
  67   38   64 1
  68   39   40 1
  69   39   41 1
  70   39   65 1
  71   39   66 1
  72   40   67 1
  73   40   68 1
  74   41   42 1
  75   42   69 1
  76   42   70 1
  77   42   71 1

#	End of record

