#	Name: ASD02038223
#	Creating user name:	WinNT
#	Creation time:	15. 06. 2019 20:16

#	Modifying user name:	WinNT
#	Modification time:	15. 06. 2019 20:16

#	Program:	/corina/corina34_cracker 3.40 0067  02.08.2006

@<TRIPOS>MOLECULE
ASD02038223
  61   64    0    0    0
SMALL
NO_CHARGES


@<TRIPOS>ATOM
   1 C1            -0.0187     1.5263     0.0104 C.3     
   2 C2             0.0021    -0.0041     0.0020 C.3     
   3 N3             0.7238    -0.4751    -1.1883 N.3     
   4 C4             0.7003    -1.9415    -1.2723 C.3     
   5 C5             1.6601    -2.4049    -2.3699 C.3     
   6 O6             1.2550    -1.8495    -3.6227 O.3     
   7 C7             1.6357    -3.9322    -2.4573 C.3     
   8 O8             2.6158    -4.3711    -3.4001 O.3     
   9 C9             2.7249    -5.7119    -3.5982 C.ar    
  10 C10            3.6558    -6.2100    -4.4996 C.ar    
  11 C11            1.9102    -6.5884    -2.8961 C.ar    
  12 C12            2.0185    -7.9490    -3.0936 C.ar    
  13 C13            2.9480    -8.4539    -4.0008 C.ar    
  14 C14            3.7618    -7.5685    -4.6955 C.ar    
  15 C15            2.1034     0.0310    -1.1988 C.3     
  16 C16            2.0826     1.5614    -1.1904 C.3     
  17 N17            1.3610     2.0324    -0.0000 N.3     
  18 C18            1.3833     3.4267     0.0798 C.ar    
  19 C19            0.7547     4.0736     1.1362 C.ar    
  20 C20            0.7791     5.4523     1.2123 C.ar    
  21 C21            1.4283     6.1888     0.2384 C.ar    
  22 C22            2.0550     5.5479    -0.8146 C.ar    
  23 C23            2.0390     4.1692    -0.8940 C.ar    
  24 N24            3.2417    -9.7695    -4.3691 N.am    
  25 C25            4.2182    -9.8333    -5.2898 C.2     
  26 C26            4.6455    -8.4116    -5.5858 C.3     
  27 O27            4.6739   -10.8410    -5.7879 O.2     
  28 C28            1.4524     7.6931     0.3245 C.3     
  29 C29            2.9018     8.1761     0.4071 C.3     
  30 C30            0.7874     8.2859    -0.9194 C.3     
  31 H31           -0.5453     1.8877    -0.8728 H       
  32 H32           -0.5283     1.8781     0.9074 H       
  33 H33            0.5048    -0.3659     0.8989 H       
  34 H34           -1.0203    -0.3815    -0.0195 H       
  35 H35            1.0093    -2.3651    -0.3167 H       
  36 H36           -0.3100    -2.2758    -1.5082 H       
  37 H37            2.6704    -2.0706    -2.1340 H       
  38 H38            0.3635    -2.1054    -3.8965 H       
  39 H39            1.8583    -4.3558    -1.4780 H       
  40 H40            0.6481    -4.2619    -2.7798 H       
  41 H41            4.2955    -5.5330    -5.0464 H       
  42 H42            1.1880    -6.2034    -2.1914 H       
  43 H43            1.3812    -8.6252    -2.5432 H       
  44 H44            2.6300    -0.3304    -0.3155 H       
  45 H45            2.6130    -0.3208    -2.0958 H       
  46 H46            3.1050     1.9388    -1.1689 H       
  47 H47            1.5799     1.9232    -2.0873 H       
  48 H48            0.2472     3.4991     1.8969 H       
  49 H49            0.2903     5.9559     2.0332 H       
  50 H50            2.5612     6.1260    -1.5735 H       
  51 H51            2.5290     3.6693    -1.7164 H       
  52 H52            2.7927   -10.5471    -4.0020 H       
  53 H53            4.4709    -8.1709    -6.6345 H       
  54 H54            5.6951    -8.2671    -5.3296 H       
  55 H55            0.9110     8.0148     1.2142 H       
  56 H56            3.4432     7.8543    -0.4826 H       
  57 H57            2.9192     9.2641     0.4694 H       
  58 H58            3.3756     7.7538     1.2933 H       
  59 H59           -0.2452     7.9418    -0.9782 H       
  60 H60            0.8048     9.3739    -0.8571 H       
  61 H61            1.3288     7.9641    -1.8090 H       
@<TRIPOS>BOND
   1    1    2 1
   2    1   17 1
   3    1   31 1
   4    1   32 1
   5    2    3 1
   6    2   33 1
   7    2   34 1
   8    3    4 1
   9    3   15 1
  10    4    5 1
  11    4   35 1
  12    4   36 1
  13    5    6 1
  14    5    7 1
  15    5   37 1
  16    6   38 1
  17    7    8 1
  18    7   39 1
  19    7   40 1
  20    8    9 1
  21    9   10 ar
  22    9   11 ar
  23   10   14 ar
  24   10   41 1
  25   11   12 ar
  26   11   42 1
  27   12   13 ar
  28   12   43 1
  29   13   14 ar
  30   13   24 1
  31   14   26 1
  32   15   16 1
  33   15   44 1
  34   15   45 1
  35   16   17 1
  36   16   46 1
  37   16   47 1
  38   17   18 1
  39   18   19 ar
  40   18   23 ar
  41   19   20 ar
  42   19   48 1
  43   20   21 ar
  44   20   49 1
  45   21   22 ar
  46   21   28 1
  47   22   23 ar
  48   22   50 1
  49   23   51 1
  50   24   25 am
  51   24   52 1
  52   25   26 1
  53   25   27 2
  54   26   53 1
  55   26   54 1
  56   28   29 1
  57   28   30 1
  58   28   55 1
  59   29   56 1
  60   29   57 1
  61   29   58 1
  62   30   59 1
  63   30   60 1
  64   30   61 1

#	End of record

