#	Name: ASD01885017
#	Creating user name:	WinNT
#	Creation time:	15. 06. 2019 19:49

#	Modifying user name:	WinNT
#	Modification time:	15. 06. 2019 19:49

#	Program:	/corina/corina34_cracker 3.40 0067  02.08.2006

@<TRIPOS>MOLECULE
ASD01885017
  62   66    0    0    0
SMALL
NO_CHARGES


@<TRIPOS>ATOM
   1 C1            -0.8816    -0.0553     1.1015 C.2     
   2 C2             0.0021    -0.0041     0.0020 C.2     
   3 C3            -0.3705     0.7854    -1.1738 C.2     
   4 C4            -1.6244     1.1528    -1.4477 C.2     
   5 C5            -2.7391     0.7552    -0.5198 C.3     
   6 C6            -2.9257     1.3868     1.6739 C.2     
   7 C7            -2.1332     0.6791     0.8735 C.2     
   8 C8            -3.8221     1.7891    -0.4047 C.2     
   9 C9            -3.9152     2.1158     0.8881 C.2     
  10 C10           -4.6475     2.3519    -1.5330 C.3     
  11 C11           -3.8924     3.5095    -2.1892 C.3     
  12 C12           -4.5141     4.1420    -3.4360 C.3     
  13 C13           -4.5233     4.9010    -2.1075 C.3     
  14 C14           -0.5900    -0.7577     2.3149 C.1     
  15 N15            1.1983    -0.6867     0.0347 N.pl3   
  16 C16            1.2278    -2.1537     0.1370 C.3     
  17 C17            2.1340    -2.7008    -0.9710 C.3     
  18 N18            3.4468    -2.0462    -0.8935 N.3     
  19 C19            3.3366    -0.6011    -1.1331 C.3     
  20 C20            2.4797     0.0317    -0.0378 C.3     
  21 C21            4.3987    -2.6635    -1.8266 C.3     
  22 C22            5.7512    -1.9566    -1.7173 C.3     
  23 C23            6.7427    -2.5995    -2.6891 C.3     
  24 C24            6.2132    -2.4690    -4.1186 C.3     
  25 C25            4.8607    -3.1759    -4.2279 C.3     
  26 C26            3.8692    -2.5330    -3.2561 C.3     
  27 N27           -0.3586    -1.3148     3.2775 N.1     
  28 O28            6.0557    -1.0865    -4.4439 O.3     
  29 C29            7.2047    -3.1119    -5.0904 C.3     
  30 H30            0.4109     1.0868    -1.8557 H       
  31 H31           -1.8375     1.7341    -2.3326 H       
  32 H32           -3.1591    -0.2052    -0.8186 H       
  33 H33           -2.8442     1.4261     2.7501 H       
  34 H34           -4.6275     2.8171     1.2969 H       
  35 H35           -4.8314     1.5725    -2.2725 H       
  36 H36           -5.5986     2.7135    -1.1422 H       
  37 H37           -2.8051     3.4462    -2.1459 H       
  38 H38           -3.8358     4.4952    -4.2127 H       
  39 H39           -5.4610     3.7334    -3.7887 H       
  40 H40           -5.4763     4.9917    -1.5863 H       
  41 H41           -3.8511     5.7535    -2.0102 H       
  42 H42            1.6229    -2.4450     1.1103 H       
  43 H43            0.2197    -2.5496     0.0145 H       
  44 H44            2.2557    -3.7764    -0.8434 H       
  45 H45            1.6833    -2.4981    -1.9426 H       
  46 H46            4.3306    -0.1539    -1.1229 H       
  47 H47            2.8692    -0.4276    -2.1024 H       
  48 H48            2.2988     1.0799    -0.2759 H       
  49 H49            2.9974    -0.0455     0.9183 H       
  50 H50            4.5188    -3.7180    -1.5785 H       
  51 H51            5.6311    -0.9020    -1.9654 H       
  52 H52            6.1285    -2.0495    -0.6989 H       
  53 H53            7.7063    -2.0959    -2.6112 H       
  54 H54            6.8628    -3.6540    -2.4410 H       
  55 H55            4.4834    -3.0829    -5.2463 H       
  56 H56            4.9808    -4.2305    -3.9798 H       
  57 H57            2.9056    -3.0366    -3.3340 H       
  58 H58            3.7491    -1.4784    -3.5042 H       
  59 H59            5.7225    -0.9282    -5.3378 H       
  60 H60            7.3248    -4.1665    -4.8423 H       
  61 H61            6.8274    -3.0190    -6.1088 H       
  62 H62            8.1682    -2.6083    -5.0126 H       
@<TRIPOS>BOND
   1    1    2 2
   2    1   14 1
   3    1    7 1
   4    2    3 1
   5    2   15 1
   6    3    4 2
   7    3   30 1
   8    4    5 1
   9    4   31 1
  10    5    8 1
  11    5    7 1
  12    5   32 1
  13    6    7 2
  14    6    9 1
  15    6   33 1
  16    8    9 2
  17    8   10 1
  18    9   34 1
  19   10   11 1
  20   10   35 1
  21   10   36 1
  22   11   12 1
  23   11   13 1
  24   11   37 1
  25   12   13 1
  26   12   38 1
  27   12   39 1
  28   13   40 1
  29   13   41 1
  30   14   27 3
  31   15   16 1
  32   15   20 1
  33   16   17 1
  34   16   42 1
  35   16   43 1
  36   17   18 1
  37   17   44 1
  38   17   45 1
  39   18   19 1
  40   18   21 1
  41   19   20 1
  42   19   46 1
  43   19   47 1
  44   20   48 1
  45   20   49 1
  46   21   22 1
  47   21   26 1
  48   21   50 1
  49   22   23 1
  50   22   51 1
  51   22   52 1
  52   23   24 1
  53   23   53 1
  54   23   54 1
  55   24   25 1
  56   24   28 1
  57   24   29 1
  58   25   26 1
  59   25   55 1
  60   25   56 1
  61   26   57 1
  62   26   58 1
  63   28   59 1
  64   29   60 1
  65   29   61 1
  66   29   62 1

#	End of record

