#	Name: ASD01908390
#	Creating user name:	WinNT
#	Creation time:	15. 06. 2019 19:55

#	Modifying user name:	WinNT
#	Modification time:	15. 06. 2019 19:55

#	Program:	/corina/corina34_cracker 3.40 0067  02.08.2006

@<TRIPOS>MOLECULE
ASD01908390
  39   42    0    0    0
SMALL
NO_CHARGES


@<TRIPOS>ATOM
   1 C1            -0.0270     1.4291    -0.0219 C.ar    
   2 C2            -0.0158     0.0471    -0.0119 C.ar    
   3 C3             1.1869    -0.6286    -0.0113 C.ar    
   4 C4             2.3887     0.0695    -0.0208 C.ar    
   5 C5             2.3776     1.4458    -0.0308 C.ar    
   6 C6             1.1646     2.1243    -0.0313 C.ar    
   7 S7             4.0414    -0.5466    -0.0229 S.o2    
   8 N8             5.0400     0.7790    -0.0365 N.am    
   9 S9             4.0201     2.0884    -0.0420 S.o2    
  10 C10            6.4380     0.7903    -0.0415 C.ar    
  11 C11            7.1227     1.9977    -0.0531 C.ar    
  12 C12            7.1425    -0.4066    -0.0290 C.ar    
  13 C13            8.5249    -0.3970    -0.0334 C.ar    
  14 C14            9.2104     0.8036    -0.0499 C.ar    
  15 C15            8.5097     2.0055    -0.0576 C.ar    
  16 O16            4.1938     2.7297    -1.2981 O.2     
  17 O17            4.2038     2.7479     1.2032 O.2     
  18 O18            4.2356    -1.1850     1.2317 O.2     
  19 O19            4.2256    -1.2032    -1.2696 O.2     
  20 N20            9.2034     3.2208    -0.0742 N.am    
  21 C21            8.6952     4.2778    -0.7383 C.2     
  22 C22            9.3567     5.5836    -0.6539 C.2     
  23 O23            7.6872     4.1484    -1.4080 O.2     
  24 O24           10.4743     5.8623     0.0487 O.3     
  25 C25           10.7869     7.1553    -0.1078 C.2     
  26 C26            9.8700     7.7294    -0.9176 C.2     
  27 C27            8.9530     6.7295    -1.2775 C.2     
  28 F28           10.5614     0.8096    -0.0533 F       
  29 H29           -0.9657     1.9632    -0.0269 H       
  30 H30           -0.9457    -0.5021    -0.0041 H       
  31 H31            1.1947    -1.7086    -0.0031 H       
  32 H32            1.1548     3.2042    -0.0395 H       
  33 H33            6.5764     2.9293    -0.0591 H       
  34 H34            6.6097    -1.3459    -0.0155 H       
  35 H35            9.0704    -1.3291    -0.0237 H       
  36 H36           10.0500     3.3025     0.3923 H       
  37 H37           11.6326     7.6564     0.3395 H       
  38 H38            9.8489     8.7624    -1.2319 H       
  39 H39            8.0909     6.8456    -1.9177 H       
@<TRIPOS>BOND
   1    1    2 ar
   2    1    6 ar
   3    1   29 1
   4    2    3 ar
   5    2   30 1
   6    3    4 ar
   7    3   31 1
   8    4    5 ar
   9    4    7 1
  10    5    6 ar
  11    5    9 1
  12    6   32 1
  13    7    8 am
  14    7   18 2
  15    7   19 2
  16    8    9 am
  17    8   10 1
  18    9   16 2
  19    9   17 2
  20   10   11 ar
  21   10   12 ar
  22   11   15 ar
  23   11   33 1
  24   12   13 ar
  25   12   34 1
  26   13   14 ar
  27   13   35 1
  28   14   15 ar
  29   14   28 1
  30   15   20 1
  31   20   21 am
  32   20   36 1
  33   21   22 1
  34   21   23 2
  35   22   24 1
  36   22   27 2
  37   24   25 1
  38   25   26 2
  39   25   37 1
  40   26   27 1
  41   26   38 1
  42   27   39 1

#	End of record

