#	Name: ASD01813226
#	Creating user name:	WinNT
#	Creation time:	15. 06. 2019 19:30

#	Modifying user name:	WinNT
#	Modification time:	15. 06. 2019 19:30

#	Program:	/corina/corina34_cracker 3.40 0067  02.08.2006

@<TRIPOS>MOLECULE
ASD01813226
  53   57    0    0    0
SMALL
NO_CHARGES


@<TRIPOS>ATOM
   1 C1            -0.5856     0.9222     0.2165 C.2     
   2 C2            -0.3600    -0.4608     0.1992 C.2     
   3 C3             0.9170    -0.9317     0.1053 C.2     
   4 C4             1.9845    -0.0218     0.0276 C.2     
   5 N5             1.7352     1.3236     0.0470 N.am    
   6 C6             0.4548     1.7826     0.1408 C.2     
   7 C7             3.2977    -0.5032    -0.0689 C.2     
   8 C8             4.3420     0.3722    -0.1445 C.2     
   9 C9             4.0819     1.7550    -0.1247 C.2     
  10 C10            2.7503     2.2079    -0.0265 C.2     
  11 O11            2.5157     3.4045    -0.0091 O.2     
  12 C12            5.1848     2.7153    -0.2041 C.2     
  13 O13            4.9288     4.0396    -0.1847 O.3     
  14 O14            6.3317     2.3187    -0.2875 O.2     
  15 C15            3.5562    -1.9877    -0.0886 C.3     
  16 N16            3.6580    -2.4486    -1.4798 N.3     
  17 C17            4.1415    -3.8335    -1.5412 C.3     
  18 C18            4.2842    -4.2512    -3.0162 C.3     
  19 C19            2.8514    -4.2387    -3.6152 C.3     
  20 C20            2.5561    -2.7144    -3.6518 C.3     
  21 C21            2.3841    -2.2706    -2.1875 C.3     
  22 C22            2.8383    -4.8271    -5.0025 C.ar    
  23 C23            4.9922    -3.0904    -3.7543 C.3     
  24 C24            3.8827    -2.1038    -4.1624 C.3     
  25 C25            3.6934    -5.8656    -5.3209 C.ar    
  26 C26            3.6814    -6.4053    -6.5935 C.ar    
  27 C27            2.8141    -5.9069    -7.5475 C.ar    
  28 C28            1.9584    -4.8691    -7.2289 C.ar    
  29 C29            1.9673    -4.3322    -5.9551 C.ar    
  30 H30           -1.5942     1.3022     0.2862 H       
  31 H31           -1.1905    -1.1485     0.2600 H       
  32 H32            1.1056    -1.9950     0.0911 H       
  33 H33            0.2693     2.8465     0.1553 H       
  34 H34            5.3560     0.0079    -0.2183 H       
  35 H35            5.6891     4.6346    -0.2394 H       
  36 H36            4.4887    -2.2011     0.4339 H       
  37 H37            2.7353    -2.5061     0.4067 H       
  38 H38            5.1106    -3.9036    -1.0470 H       
  39 H39            3.4287    -4.4909    -1.0434 H       
  40 H40            4.7852    -5.2118    -3.1356 H       
  41 H41            2.1492    -4.7589    -2.9637 H       
  42 H42            1.6953    -2.4641    -4.2719 H       
  43 H43            1.6143    -2.8773    -1.7107 H       
  44 H44            2.0935    -1.2204    -2.1567 H       
  45 H45            5.7031    -2.6009    -3.0887 H       
  46 H46            5.5043    -3.4661    -4.6401 H       
  47 H47            3.8543    -1.9989    -5.2470 H       
  48 H48            4.0532    -1.1336    -3.6956 H       
  49 H49            4.3710    -6.2550    -4.5756 H       
  50 H50            4.3500    -7.2162    -6.8424 H       
  51 H51            2.8052    -6.3282    -8.5420 H       
  52 H52            1.2810    -4.4795    -7.9744 H       
  53 H53            1.2988    -3.5214    -5.7061 H       
@<TRIPOS>BOND
   1    1    2 1
   2    1    6 2
   3    1   30 1
   4    2    3 2
   5    2   31 1
   6    3    4 1
   7    3   32 1
   8    4    5 1
   9    4    7 2
  10    5    6 1
  11    5   10 am
  12    6   33 1
  13    7    8 1
  14    7   15 1
  15    8    9 2
  16    8   34 1
  17    9   10 1
  18    9   12 1
  19   10   11 2
  20   12   13 1
  21   12   14 2
  22   13   35 1
  23   15   16 1
  24   15   36 1
  25   15   37 1
  26   16   17 1
  27   16   21 1
  28   17   18 1
  29   17   38 1
  30   17   39 1
  31   18   19 1
  32   18   23 1
  33   18   40 1
  34   19   20 1
  35   19   22 1
  36   19   41 1
  37   20   21 1
  38   20   24 1
  39   20   42 1
  40   21   43 1
  41   21   44 1
  42   22   25 ar
  43   22   29 ar
  44   23   24 1
  45   23   45 1
  46   23   46 1
  47   24   47 1
  48   24   48 1
  49   25   26 ar
  50   25   49 1
  51   26   27 ar
  52   26   50 1
  53   27   28 ar
  54   27   51 1
  55   28   29 ar
  56   28   52 1
  57   29   53 1

#	End of record

