#	Name: ASD05300021
#	Creating user name:	WinNT
#	Creation time:	15. 06. 2019 20:58

#	Modifying user name:	WinNT
#	Modification time:	15. 06. 2019 20:58

#	Program:	/corina/corina34_cracker 3.40 0067  02.08.2006

@<TRIPOS>MOLECULE
ASD05300021
  30   32    0    0    0
SMALL
NO_CHARGES


@<TRIPOS>ATOM
   1 F1             0.0021    -0.0041     0.0020 F       
   2 C2            -0.0162     1.3468     0.0094 C.2     
   3 C3             1.1134     2.0218     0.0023 C.2     
   4 C4             1.0918     3.4932    -0.0028 C.2     
   5 C5            -0.0580     4.1413    -0.0009 C.2     
   6 C6            -1.3191     3.3845     0.0337 C.2     
   7 C7            -1.3003     2.0673     0.0194 C.2     
   8 N8            -2.5044     4.0316     0.1120 N.am    
   9 C9            -3.4181     3.8918    -0.8688 C.2     
  10 O10           -3.1784     3.1846    -1.8245 O.2     
  11 N11           -4.5981     4.5378    -0.7877 N.am    
  12 C12           -2.7686     4.8189     1.1792 C.2     
  13 C13           -3.7784     4.5162     1.9703 C.2     
  14 C14           -4.0587     5.3388     3.1587 C.2     
  15 C15           -3.2956     6.3752     3.4333 C.2     
  16 C16           -2.1740     6.7188     2.5445 C.2     
  17 C17           -1.9324     5.9930     1.4691 C.2     
  18 C18           -0.8584     6.3979     0.5578 C.2     
  19 C19           -0.0560     5.6044    -0.0698 C.2     
  20 H20            2.0567     1.4957     0.0005 H       
  21 H21            2.0203     4.0449    -0.0077 H       
  22 H22           -2.2283     1.5149     0.0251 H       
  23 H23           -4.7898     5.1034    -0.0233 H       
  24 H24           -5.2557     4.4372    -1.4936 H       
  25 H25           -4.4017     3.6632     1.7461 H       
  26 H26           -4.8892     5.0924     3.8037 H       
  27 H27           -3.4925     6.9736     4.3105 H       
  28 H28           -1.5469     7.5679     2.7729 H       
  29 H29           -0.7260     7.4575     0.3962 H       
  30 H30            0.6872     6.0629    -0.7054 H       
@<TRIPOS>BOND
   1    1    2 1
   2    2    3 2
   3    2    7 1
   4    3    4 1
   5    3   20 1
   6    4    5 2
   7    4   21 1
   8    5    6 1
   9    5   19 1
  10    6    7 2
  11    6    8 1
  12    7   22 1
  13    8    9 am
  14    8   12 1
  15    9   10 2
  16    9   11 am
  17   11   23 1
  18   11   24 1
  19   12   13 2
  20   12   17 1
  21   13   14 1
  22   13   25 1
  23   14   15 2
  24   14   26 1
  25   15   16 1
  26   15   27 1
  27   16   17 2
  28   16   28 1
  29   17   18 1
  30   18   19 2
  31   18   29 1
  32   19   30 1

#	End of record

