#	Name: ASD01148499
#	Creating user name:	WinNT
#	Creation time:	15. 06. 2019 19:02

#	Modifying user name:	WinNT
#	Modification time:	15. 06. 2019 19:02

#	Program:	/corina/corina34_cracker 3.40 0067  02.08.2006

@<TRIPOS>MOLECULE
ASD01148499
  58   62    0    0    0
SMALL
NO_CHARGES


@<TRIPOS>ATOM
   1 C1            -0.0180     1.4362     0.0450 C.ar    
   2 C2            -0.0166     0.0527     0.0405 C.ar    
   3 C3             1.1824    -0.6372     0.0176 C.ar    
   4 C4             2.3780     0.0559    -0.0008 C.ar    
   5 C5             2.3760     1.4383     0.0038 C.ar    
   6 C6             1.1783     2.1283     0.0267 C.ar    
   7 C7             3.6800     2.1935    -0.0157 C.3     
   8 O8             4.6901     1.4604    -0.7379 O.3     
   9 C9             3.5603     3.4832    -0.8622 C.3     
  10 C10            4.0470     3.0294    -2.2254 C.2     
  11 N11            4.6599     1.9008    -2.0811 N.2     
  12 C12            3.8535     3.7504    -3.4951 C.ar    
  13 C13            4.3767     3.1972    -4.7419 C.ar    
  14 C14            3.1679     4.9571    -3.5157 C.ar    
  15 C15            2.9717     5.6554    -4.6940 C.ar    
  16 C16            3.4515     5.1793    -5.9062 C.ar    
  17 C17            4.1761     3.9115    -5.9468 C.ar    
  18 C18            3.2266     5.9454    -7.1456 C.2     
  19 O19            3.7383     5.5810    -8.1869 O.2     
  20 N20            2.4539     7.0494    -7.1246 N.am    
  21 C21            4.6774     3.3927    -7.1473 C.ar    
  22 C22            5.0691     1.9799    -4.7693 C.ar    
  23 C23            4.1462     2.5122     1.4062 C.3     
  24 F24            4.3114     1.3209     2.1208 F       
  25 F25            5.3645     3.1980     1.3548 F       
  26 F26            3.1890     3.3092     2.0432 F       
  27 Cl27          -1.5187    -0.8172     0.0641 Cl      
  28 N28            2.2401     7.7774    -8.3024 N.pl3   
  29 C29            1.3309     7.2604    -9.3282 C.3     
  30 C30            2.8939     8.9959    -8.4987 C.ar    
  31 C31            2.6832     9.7190    -9.6659 C.ar    
  32 C32            3.3309    10.9237    -9.8565 C.ar    
  33 C33            4.1884    11.4104    -8.8870 C.ar    
  34 C34            4.4009    10.6930    -7.7240 C.ar    
  35 C35            3.7520     9.4903    -7.5245 C.ar    
  36 C36            5.5401     1.4999    -5.9551 C.ar    
  37 C37            5.3475     2.2055    -7.1399 C.ar    
  38 H38           -0.9537     1.9753     0.0584 H       
  39 H39            1.1841    -1.7172     0.0144 H       
  40 H40            3.3140    -0.4825    -0.0183 H       
  41 H41            1.1773     3.2083     0.0302 H       
  42 H42            2.5243     3.8180    -0.9130 H       
  43 H43            4.2027     4.2685    -0.4638 H       
  44 H44            2.7789     5.3594    -2.5921 H       
  45 H45            2.4331     6.5913    -4.6699 H       
  46 H46            2.0457     7.3400    -6.2940 H       
  47 H47            4.5337     3.9297    -8.0732 H       
  48 H48            5.2291     1.4252    -3.8565 H       
  49 H49            0.3216     7.6246    -9.1361 H       
  50 H50            1.6593     7.6013   -10.3101 H       
  51 H51            1.3351     6.1708    -9.3017 H       
  52 H52            2.0138     9.3392   -10.4236 H       
  53 H53            3.1677    11.4862   -10.7639 H       
  54 H54            4.6937    12.3528    -9.0385 H       
  55 H55            5.0716    11.0758    -6.9690 H       
  56 H56            3.9184     8.9305    -6.6160 H       
  57 H57            6.0738     0.5612    -5.9752 H       
  58 H58            5.7334     1.8061    -8.0661 H       
@<TRIPOS>BOND
   1    1    2 ar
   2    1    6 ar
   3    1   38 1
   4    2    3 ar
   5    2   27 1
   6    3    4 ar
   7    3   39 1
   8    4    5 ar
   9    4   40 1
  10    5    6 ar
  11    5    7 1
  12    6   41 1
  13    7    8 1
  14    7    9 1
  15    7   23 1
  16    8   11 1
  17    9   10 1
  18    9   42 1
  19    9   43 1
  20   10   11 2
  21   10   12 1
  22   12   13 ar
  23   12   14 ar
  24   13   22 ar
  25   13   17 ar
  26   14   15 ar
  27   14   44 1
  28   15   16 ar
  29   15   45 1
  30   16   17 ar
  31   16   18 1
  32   17   21 ar
  33   18   19 2
  34   18   20 am
  35   20   28 1
  36   20   46 1
  37   21   37 ar
  38   21   47 1
  39   22   36 ar
  40   22   48 1
  41   23   24 1
  42   23   25 1
  43   23   26 1
  44   28   29 1
  45   28   30 1
  46   29   49 1
  47   29   50 1
  48   29   51 1
  49   30   31 ar
  50   30   35 ar
  51   31   32 ar
  52   31   52 1
  53   32   33 ar
  54   32   53 1
  55   33   34 ar
  56   33   54 1
  57   34   35 ar
  58   34   55 1
  59   35   56 1
  60   36   37 ar
  61   36   57 1
  62   37   58 1

#	End of record

