#	Name: ASD09530042
#	Creating user name:	WinNT
#	Creation time:	15. 06. 2019 21:22

#	Modifying user name:	WinNT
#	Modification time:	15. 06. 2019 21:22

#	Program:	/corina/corina34_cracker 3.40 0067  02.08.2006

@<TRIPOS>MOLECULE
ASD09530042
  51   53    0    0    0
SMALL
NO_CHARGES


@<TRIPOS>ATOM
   1 C1            -0.3166     1.4747     0.4670 C.ar    
   2 C2            -0.1104     0.1516     0.1038 C.ar    
   3 C3             1.1741    -0.3000    -0.1628 C.ar    
   4 C4             2.2442     0.5682    -0.0661 C.ar    
   5 C5             2.0360     1.8863     0.2960 C.ar    
   6 C6             0.7569     2.3389     0.5623 C.ar    
   7 C7             3.2052     2.8313     0.4007 C.3     
   8 C8             3.4343     3.4966    -0.9319 C.2     
   9 N9             4.4346     4.3882    -1.0769 N.am    
  10 O10            2.7186     3.2297    -1.8739 O.2     
  11 C11            4.6572     5.0350    -2.3724 C.3     
  12 C12            5.3514     6.3559    -2.1617 C.ar    
  13 N13            6.0829     6.5410    -1.0805 N.ar    
  14 C14            6.7090     7.6786    -0.8521 C.ar    
  15 C15            6.6175     8.7300    -1.7522 C.ar    
  16 C16            5.8538     8.5689    -2.9040 C.ar    
  17 C17            5.2172     7.3554    -3.1075 C.ar    
  18 O18            7.2644     9.9010    -1.5123 O.3     
  19 C19            8.0271     9.9856    -0.3068 C.3     
  20 C20            8.6775    11.3672    -0.2108 C.3     
  21 C21            5.5300     4.1343    -3.2488 C.3     
  22 F22            7.6832    12.3512    -0.2036 F       
  23 F23            9.4242    11.4500     0.9693 F       
  24 F24            9.5199    11.5634    -1.3104 F       
  25 O25           -1.1647    -0.7007     0.0099 O.3     
  26 C26           -1.9819    -0.5866    -1.0672 C.ar    
  27 N27           -1.6759     0.2620    -2.0348 N.ar    
  28 C28           -3.1288    -1.3661    -1.1460 C.ar    
  29 C29           -3.9540    -1.2402    -2.2501 C.ar    
  30 C30           -3.6007    -0.3346    -3.2408 C.ar    
  31 C31           -2.4424     0.4040    -3.0991 C.ar    
  32 H32           -1.3160     1.8298     0.6707 H       
  33 H33            1.3373    -1.3296    -0.4453 H       
  34 H34            3.2443     0.2171    -0.2732 H       
  35 H35            0.5970     3.3688     0.8453 H       
  36 H36            2.9929     3.5901     1.1539 H       
  37 H37            4.0976     2.2748     0.6872 H       
  38 H38            5.0070     4.6017    -0.3235 H       
  39 H39            3.6991     5.2025    -2.8644 H       
  40 H40            7.2989     7.7931     0.0453 H       
  41 H41            5.7630     9.3688    -3.6240 H       
  42 H42            4.6162     7.1949    -3.9903 H       
  43 H43            7.3708     9.8327     0.5499 H       
  44 H44            8.8018     9.2189    -0.3124 H       
  45 H45            5.0279     3.1789    -3.4012 H       
  46 H46            5.6957     4.6155    -4.2127 H       
  47 H47            6.4881     3.9668    -2.7568 H       
  48 H48           -3.3732    -2.0614    -0.3565 H       
  49 H49           -4.8522    -1.8333    -2.3389 H       
  50 H50           -4.2225    -0.2122    -4.1153 H       
  51 H51           -2.1632     1.1103    -3.8669 H       
@<TRIPOS>BOND
   1    1    2 ar
   2    1    6 ar
   3    1   32 1
   4    2    3 ar
   5    2   25 1
   6    3    4 ar
   7    3   33 1
   8    4    5 ar
   9    4   34 1
  10    5    6 ar
  11    5    7 1
  12    6   35 1
  13    7    8 1
  14    7   36 1
  15    7   37 1
  16    8    9 am
  17    8   10 2
  18    9   11 1
  19    9   38 1
  20   11   12 1
  21   11   21 1
  22   11   39 1
  23   12   13 ar
  24   12   17 ar
  25   13   14 ar
  26   14   15 ar
  27   14   40 1
  28   15   16 ar
  29   15   18 1
  30   16   17 ar
  31   16   41 1
  32   17   42 1
  33   18   19 1
  34   19   20 1
  35   19   43 1
  36   19   44 1
  37   20   22 1
  38   20   23 1
  39   20   24 1
  40   21   45 1
  41   21   46 1
  42   21   47 1
  43   25   26 1
  44   26   27 ar
  45   26   28 ar
  46   27   31 ar
  47   28   29 ar
  48   28   48 1
  49   29   30 ar
  50   29   49 1
  51   30   31 ar
  52   30   50 1
  53   31   51 1

#	End of record

