#	Name: ASD01917872
#	Creating user name:	WinNT
#	Creation time:	15. 06. 2019 20:10

#	Modifying user name:	WinNT
#	Modification time:	15. 06. 2019 20:10

#	Program:	/corina/corina34_cracker 3.40 0067  02.08.2006

@<TRIPOS>MOLECULE
ASD01917872
  39   42    0    0    0
SMALL
NO_CHARGES


@<TRIPOS>ATOM
   1 C1             0.0779     1.0361    -0.6050 C.2     
   2 C2            -0.0282    -0.3055    -0.5731 C.2     
   3 C3            -1.3433    -1.0260    -0.3190 C.3     
   4 C4            -2.3274    -0.0562     0.3393 C.3     
   5 N5            -2.3123     1.2177    -0.3955 N.am    
   6 C6            -1.0646     2.0013    -0.3863 C.3     
   7 C7            -3.4039     1.6536    -1.0549 C.2     
   8 O8            -4.3826     0.9380    -1.1509 O.2     
   9 S9             1.7520     1.4610    -0.9328 S.3     
  10 C10            2.1679    -0.1957    -0.9944 C.2     
  11 N11            1.1264    -0.9218    -0.7865 N.2     
  12 C12            3.5533    -0.7285    -1.2549 C.3     
  13 O13            3.7370    -0.9110    -2.6602 O.3     
  14 C14            4.9420    -1.3893    -3.0680 C.ar    
  15 C15            5.1888    -1.5906    -4.4182 C.ar    
  16 C16            6.4145    -2.0769    -4.8302 C.ar    
  17 C17            7.3948    -2.3628    -3.8980 C.ar    
  18 C18            7.1511    -2.1634    -2.5517 C.ar    
  19 C19            5.9293    -1.6715    -2.1351 C.ar    
  20 C20           -3.4117     2.9963    -1.6591 C.2     
  21 C21           -4.2866     3.4772    -2.5973 C.2     
  22 N22           -3.9157     4.7329    -2.8483 N.2     
  23 N23           -2.8910     5.0277    -2.1309 N.2     
  24 N24           -2.5488     4.0279    -1.3960 N.pl3   
  25 H25           -1.7553    -1.3767    -1.2653 H       
  26 H26           -1.1716    -1.8755     0.3420 H       
  27 H27           -3.3309    -0.4808     0.3120 H       
  28 H28           -2.0316     0.1165     1.3741 H       
  29 H29           -0.9492     2.5025     0.5747 H       
  30 H30           -1.0841     2.7381    -1.1893 H       
  31 H31            4.2917    -0.0191    -0.8811 H       
  32 H32            3.6769    -1.6840    -0.7452 H       
  33 H33            4.4232    -1.3678    -5.1467 H       
  34 H34            6.6070    -2.2341    -5.8812 H       
  35 H35            8.3524    -2.7429    -4.2220 H       
  36 H36            7.9183    -2.3882    -1.8254 H       
  37 H37            5.7394    -1.5159    -1.0834 H       
  38 H38           -5.1125     2.9445    -3.0451 H       
  39 H39           -1.8096     4.0076    -0.7684 H       
@<TRIPOS>BOND
   1    1    2 2
   2    1    9 1
   3    1    6 1
   4    2    3 1
   5    2   11 1
   6    3    4 1
   7    3   25 1
   8    3   26 1
   9    4    5 1
  10    4   27 1
  11    4   28 1
  12    5    6 1
  13    5    7 am
  14    6   29 1
  15    6   30 1
  16    7    8 2
  17    7   20 1
  18    9   10 1
  19   10   11 2
  20   10   12 1
  21   12   13 1
  22   12   31 1
  23   12   32 1
  24   13   14 1
  25   14   15 ar
  26   14   19 ar
  27   15   16 ar
  28   15   33 1
  29   16   17 ar
  30   16   34 1
  31   17   18 ar
  32   17   35 1
  33   18   19 ar
  34   18   36 1
  35   19   37 1
  36   20   21 2
  37   20   24 1
  38   21   22 1
  39   21   38 1
  40   22   23 2
  41   23   24 1
  42   24   39 1

#	End of record

