#	Name: ASD03330830
#	Creating user name:	WinNT
#	Creation time:	15. 06. 2019 20:38

#	Modifying user name:	WinNT
#	Modification time:	15. 06. 2019 20:38

#	Program:	/corina/corina34_cracker 3.40 0067  02.08.2006

@<TRIPOS>MOLECULE
ASD03330830
  60   62    0    0    0
SMALL
NO_CHARGES


@<TRIPOS>ATOM
   1 C1            -0.0286     2.0969     1.9875 C.2     
   2 N2            -0.1491     0.8089     2.4049 N.pl3   
   3 C3             1.2518     2.2586     1.5523 C.2     
   4 N4             1.8870     1.0745     1.6915 N.2     
   5 C5             1.0524     0.1970     2.1971 C.2     
   6 C6             1.3625    -1.2190     2.4923 C.ar    
   7 C7             1.8390     3.5024     1.0236 C.2     
   8 O8             1.1617     4.5097     0.9461 O.2     
   9 N9             3.1265     3.5239     0.6257 N.am    
  10 C10           -1.3562     0.2124     2.9835 C.3     
  11 C11           -2.5645     0.5843     2.1184 C.3     
  12 C12           -3.1393     1.9190     2.5817 C.3     
  13 N13           -2.0817     2.8091     3.0644 N.3     
  14 C14           -1.1247     3.1307     1.9952 C.3     
  15 C15            1.0052    -1.7725     3.7217 C.ar    
  16 C16            1.2969    -3.0951     3.9917 C.ar    
  17 C17            1.9426    -3.8720     3.0452 C.ar    
  18 C18            2.3001    -3.3293     1.8230 C.ar    
  19 C19            2.0089    -2.0084     1.5391 C.ar    
  20 C20            3.7103     4.7605     0.1000 C.3     
  21 C21            5.2034     4.7367     0.3023 C.2     
  22 C22            3.3998     4.8763    -1.3937 C.3     
  23 C23            1.8865     4.8033    -1.6071 C.3     
  24 C24            3.9254     6.2125    -1.9218 C.3     
  25 C25            4.0768     3.7287    -2.1458 C.3     
  26 O26            5.7606     3.6973     0.5852 O.2     
  27 N27            5.9196     5.8706     0.1689 N.am    
  28 C28            7.3790     5.8340     0.2923 C.3     
  29 C29           -2.6486     4.0318     3.6488 C.3     
  30 Cl30           2.4577    -1.3286     0.0061 Cl      
  31 Cl31           3.1096    -4.3113     0.6423 Cl      
  32 Cl32           0.8532    -3.7849     5.5218 Cl      
  33 H33            3.6667     2.7206     0.6875 H       
  34 H34           -1.2488    -0.8719     3.0126 H       
  35 H35           -1.5015     0.5924     3.9948 H       
  36 H36           -2.2532     0.6657     1.0769 H       
  37 H37           -3.3268    -0.1896     2.2086 H       
  38 H38           -3.6547     2.3953     1.7476 H       
  39 H39           -3.8522     1.7412     3.3868 H       
  40 H40           -0.6949     4.1162     2.1751 H       
  41 H41           -1.6374     3.1255     1.0334 H       
  42 H42            0.5017    -1.1677     4.4614 H       
  43 H43            2.1687    -4.9057     3.2614 H       
  44 H44            3.2858     5.6152     0.6267 H       
  45 H45            1.4041     5.6208    -1.0713 H       
  46 H46            1.6653     4.8858    -2.6713 H       
  47 H47            1.5120     3.8513    -1.2309 H       
  48 H48            4.9744     6.3243    -1.6474 H       
  49 H49            3.8291     6.2375    -3.0072 H       
  50 H50            3.3473     7.0278    -1.4869 H       
  51 H51            3.7023     2.7767    -1.7695 H       
  52 H52            3.8556     3.8112    -3.2099 H       
  53 H53            5.1549     3.7807    -1.9937 H       
  54 H54            5.4689     6.7109    -0.0088 H       
  55 H55            7.6508     5.4657     1.2815 H       
  56 H56            7.7914     5.1710    -0.4683 H       
  57 H57            7.7805     6.8381     0.1554 H       
  58 H58           -3.2935     3.7686     4.4872 H       
  59 H59           -1.8415     4.6751     3.9992 H       
  60 H60           -3.2315     4.5590     2.8935 H       
@<TRIPOS>BOND
   1    1    2 1
   2    1    3 2
   3    1   14 1
   4    2   10 1
   5    2    5 1
   6    3    4 1
   7    3    7 1
   8    4    5 2
   9    5    6 1
  10    6   15 ar
  11    6   19 ar
  12    7    8 2
  13    7    9 am
  14    9   20 1
  15    9   33 1
  16   10   11 1
  17   10   34 1
  18   10   35 1
  19   11   12 1
  20   11   36 1
  21   11   37 1
  22   12   13 1
  23   12   38 1
  24   12   39 1
  25   13   14 1
  26   13   29 1
  27   14   40 1
  28   14   41 1
  29   15   16 ar
  30   15   42 1
  31   16   17 ar
  32   16   32 1
  33   17   18 ar
  34   17   43 1
  35   18   19 ar
  36   18   31 1
  37   19   30 1
  38   20   21 1
  39   20   22 1
  40   20   44 1
  41   21   26 2
  42   21   27 am
  43   22   23 1
  44   22   24 1
  45   22   25 1
  46   23   45 1
  47   23   46 1
  48   23   47 1
  49   24   48 1
  50   24   49 1
  51   24   50 1
  52   25   51 1
  53   25   52 1
  54   25   53 1
  55   27   28 1
  56   27   54 1
  57   28   55 1
  58   28   56 1
  59   28   57 1
  60   29   58 1
  61   29   59 1
  62   29   60 1

#	End of record

