#	Name: ASD09740120
#	Creating user name:	WinNT
#	Creation time:	15. 06. 2019 21:22

#	Modifying user name:	WinNT
#	Modification time:	15. 06. 2019 21:22

#	Program:	/corina/corina34_cracker 3.40 0067  02.08.2006

@<TRIPOS>MOLECULE
ASD09740120
  41   43    0    0    0
SMALL
NO_CHARGES


@<TRIPOS>ATOM
   1 N1            -0.0154     1.2810     0.0091 N.2     
   2 N2             0.0021    -0.0041     0.0020 N.2     
   3 C3             1.2147     1.7467    -0.0002 C.2     
   4 N4             2.0569     0.6655    -0.0140 N.pl3   
   5 C5             1.2458    -0.4365    -0.0122 C.2     
   6 C6             1.6836    -1.8479    -0.0239 C.ar    
   7 C7             1.6142     3.1701     0.0029 C.ar    
   8 C8             0.6524     4.1873     0.0173 C.ar    
   9 C9             1.0697     5.5019     0.0202 C.ar    
  10 N10            2.3538     5.8053     0.0092 N.ar    
  11 C11            3.2924     4.8782    -0.0045 C.ar    
  12 C12            2.9648     3.5383    -0.0025 C.ar    
  13 C13            3.0444    -2.1578    -0.0386 C.ar    
  14 C14            2.5113    -4.4953    -0.0466 C.ar    
  15 C15            1.1512    -4.1928    -0.0258 C.ar    
  16 C16            0.7368    -2.8744    -0.0146 C.ar    
  17 C17            3.4516    -3.4758    -0.0496 C.ar    
  18 O18            2.9175    -5.7924    -0.0571 O.3     
  19 C19            4.3262    -6.0310    -0.0784 C.3     
  20 C20            4.5881    -7.5384    -0.0875 C.3     
  21 O21            0.2317    -5.1948    -0.0168 O.3     
  22 C22           -1.1448    -4.8119     0.0047 C.3     
  23 C23           -2.0227    -6.0650     0.0120 C.3     
  24 H24            3.0267     0.6788    -0.0235 H       
  25 H25           -0.4003     3.9463     0.0256 H       
  26 H26            0.3354     6.2938     0.0312 H       
  27 H27            4.3316     5.1724    -0.0136 H       
  28 H28            3.7385     2.7848    -0.0138 H       
  29 H29            3.7786    -1.3658    -0.0417 H       
  30 H30           -0.3170    -2.6385     0.0016 H       
  31 H31            4.5049    -3.7143    -0.0609 H       
  32 H32            4.7573    -5.5819    -0.9732 H       
  33 H33            4.7832    -5.5882     0.8066 H       
  34 H34            4.1571    -7.9875     0.8073 H       
  35 H35            4.1312    -7.9813    -0.9725 H       
  36 H36            5.6627    -7.7204    -0.1038 H       
  37 H37           -1.3443    -4.2233     0.9001 H       
  38 H38           -1.3700    -4.2157    -0.8796 H       
  39 H39           -1.8232    -6.6536    -0.8835 H       
  40 H40           -1.7976    -6.6611     0.8963 H       
  41 H41           -3.0727    -5.7729     0.0283 H       
@<TRIPOS>BOND
   1    1    2 1
   2    1    3 2
   3    2    5 2
   4    3    4 1
   5    3    7 1
   6    4    5 1
   7    4   24 1
   8    5    6 1
   9    6   13 ar
  10    6   16 ar
  11    7    8 ar
  12    7   12 ar
  13    8    9 ar
  14    8   25 1
  15    9   10 ar
  16    9   26 1
  17   10   11 ar
  18   11   12 ar
  19   11   27 1
  20   12   28 1
  21   13   17 ar
  22   13   29 1
  23   14   15 ar
  24   14   18 1
  25   14   17 ar
  26   15   16 ar
  27   15   21 1
  28   16   30 1
  29   17   31 1
  30   18   19 1
  31   19   20 1
  32   19   32 1
  33   19   33 1
  34   20   34 1
  35   20   35 1
  36   20   36 1
  37   21   22 1
  38   22   23 1
  39   22   37 1
  40   22   38 1
  41   23   39 1
  42   23   40 1
  43   23   41 1

#	End of record

