#	Name: ASD01916280
#	Creating user name:	WinNT
#	Creation time:	15. 06. 2019 20:07

#	Modifying user name:	WinNT
#	Modification time:	15. 06. 2019 20:07

#	Program:	/corina/corina34_cracker 3.40 0067  02.08.2006

@<TRIPOS>MOLECULE
ASD01916280
  35   37    0    0    0
SMALL
NO_CHARGES


@<TRIPOS>ATOM
   1 C1            -0.5826     3.4738     3.1812 C.ar    
   2 C2            -0.7459     6.0168    -0.4421 C.ar    
   3 C3            -0.5653     7.3870    -0.5047 C.ar    
   4 C4            -1.6131     8.2395    -0.2163 C.ar    
   5 C5            -2.8582     7.7182     0.1390 C.ar    
   6 C6            -3.0386     6.3359     0.2006 C.ar    
   7 C7            -1.9813     5.4899    -0.0896 C.ar    
   8 O8            -2.1531     4.1432    -0.0298 O.3     
   9 C9            -1.6836     3.4881     1.0644 C.ar    
  10 C10           -1.8337     2.1137     1.1795 C.ar    
  11 N11           -1.3847     1.4734     2.2408 N.ar    
  12 C12           -0.7755     2.1030     3.2260 C.ar    
  13 C13           -1.0452     4.1864     2.0844 C.ar    
  14 Cl14           0.9828     8.0367    -0.9464 Cl      
  15 C15           -3.9818     8.6273     0.4488 C.2     
  16 N16           -3.8050     9.9621     0.3886 N.am    
  17 O17           -5.0653     8.1711     0.7579 O.2     
  18 C18           -4.8894    10.8181     0.5767 C.ar    
  19 C19           -4.7245    12.1867     0.3987 C.ar    
  20 C20           -7.0265    12.4638     0.9508 C.ar    
  21 C21           -7.1188    11.0924     1.1054 C.ar    
  22 N22           -6.0668    10.3188     0.9178 N.ar    
  23 C23           -5.8084    13.0261     0.5879 C.ar    
  24 F24           -8.1096    13.2475     1.1451 F       
  25 F25            0.0433     4.1099     4.1955 F       
  26 H26            0.0756     5.3546    -0.6726 H       
  27 H27           -1.4691     9.3087    -0.2652 H       
  28 H28           -3.9997     5.9270     0.4752 H       
  29 H29           -2.3282     1.5628     0.3931 H       
  30 H30           -0.4219     1.5425     4.0788 H       
  31 H31           -0.9134     5.2566     2.0241 H       
  32 H32           -2.9234    10.3272     0.2143 H       
  33 H33           -3.7631    12.5899     0.1167 H       
  34 H34           -8.0637    10.6494     1.3835 H       
  35 H35           -5.7099    14.0936     0.4569 H       
@<TRIPOS>BOND
   1    1   25 1
   2    1   12 ar
   3    1   13 ar
   4    2    3 ar
   5    2    7 ar
   6    2   26 1
   7    3    4 ar
   8    3   14 1
   9    4    5 ar
  10    4   27 1
  11    5    6 ar
  12    5   15 1
  13    6    7 ar
  14    6   28 1
  15    7    8 1
  16    8    9 1
  17    9   10 ar
  18    9   13 ar
  19   10   11 ar
  20   10   29 1
  21   11   12 ar
  22   12   30 1
  23   13   31 1
  24   15   16 am
  25   15   17 2
  26   16   18 1
  27   16   32 1
  28   18   19 ar
  29   18   22 ar
  30   19   23 ar
  31   19   33 1
  32   20   21 ar
  33   20   24 1
  34   20   23 ar
  35   21   22 ar
  36   21   34 1
  37   23   35 1

#	End of record

