#	Name: ASD01917549
#	Creating user name:	WinNT
#	Creation time:	15. 06. 2019 20:09

#	Modifying user name:	WinNT
#	Modification time:	15. 06. 2019 20:09

#	Program:	/corina/corina34_cracker 3.40 0067  02.08.2006

@<TRIPOS>MOLECULE
ASD01917549
  42   45    0    0    0
SMALL
NO_CHARGES


@<TRIPOS>ATOM
   1 C1            -0.0166     1.3750     0.0096 C.ar    
   2 C2             0.0021    -0.0041     0.0020 C.ar    
   3 C3             1.2078    -0.6830    -0.0127 C.ar    
   4 C4             2.4026     0.0150    -0.0203 C.ar    
   5 C5             2.3996     1.3942    -0.0134 C.ar    
   6 C6             1.1859     2.0866     0.0019 C.ar    
   7 C7             1.1746     3.5185     0.0093 C.1     
   8 C8             1.1654     4.6925     0.0153 C.1     
   9 C9             1.1541     6.1244     0.0226 C.ar    
  10 C10            2.3551     6.8469     0.0150 C.ar    
  11 C11            2.2886     8.2285     0.0226 C.ar    
  12 C12            1.0511     8.8474     0.0374 C.ar    
  13 N13           -0.0638     8.1423     0.0442 N.ar    
  14 C14           -0.0543     6.8255     0.0316 C.ar    
  15 C15            3.5512     9.0513     0.0155 C.3     
  16 C16            3.8807     9.5494     1.4359 C.3     
  17 O17            3.8374    11.0011     1.3194 O.3     
  18 C18            3.5369    11.3388     0.0604 C.2     
  19 N19            3.3564    10.2898    -0.7537 N.am    
  20 C20            5.2560     9.0934     1.8499 C.ar    
  21 C21            6.3434     9.9285     1.6737 C.ar    
  22 C22            7.6051     9.5102     2.0529 C.ar    
  23 C23            7.7803     8.2564     2.6087 C.ar    
  24 C24            6.6939     7.4208     2.7858 C.ar    
  25 C25            5.4298     7.8412     2.4116 C.ar    
  26 O26            3.4364    12.4914    -0.3110 O.2     
  27 Cl27           4.0635     6.7949     2.6403 Cl      
  28 H28           -0.9584     1.9036     0.0169 H       
  29 H29           -0.9266    -0.5554     0.0079 H       
  30 H30            1.2163    -1.7629    -0.0178 H       
  31 H31            3.3399    -0.5216    -0.0315 H       
  32 H32            3.3329     1.9376    -0.0190 H       
  33 H33            3.3076     6.3381     0.0038 H       
  34 H34            0.9971     9.9260     0.0437 H       
  35 H35           -0.9882     6.2831     0.0327 H       
  36 H36            4.3826     8.4751    -0.3906 H       
  37 H37            3.1314     9.2006     2.1465 H       
  38 H38            3.1339    10.3392    -1.6966 H       
  39 H39            6.2073    10.9079     1.2393 H       
  40 H40            8.4544    10.1628     1.9147 H       
  41 H41            8.7664     7.9298     2.9041 H       
  42 H42            6.8309     6.4413     3.2195 H       
@<TRIPOS>BOND
   1    1    2 ar
   2    1    6 ar
   3    1   28 1
   4    2    3 ar
   5    2   29 1
   6    3    4 ar
   7    3   30 1
   8    4    5 ar
   9    4   31 1
  10    5    6 ar
  11    5   32 1
  12    6    7 1
  13    7    8 3
  14    8    9 1
  15    9   10 ar
  16    9   14 ar
  17   10   11 ar
  18   10   33 1
  19   11   12 ar
  20   11   15 1
  21   12   13 ar
  22   12   34 1
  23   13   14 ar
  24   14   35 1
  25   15   16 1
  26   15   19 1
  27   15   36 1
  28   16   17 1
  29   16   20 1
  30   16   37 1
  31   17   18 1
  32   18   19 am
  33   18   26 2
  34   19   38 1
  35   20   21 ar
  36   20   25 ar
  37   21   22 ar
  38   21   39 1
  39   22   23 ar
  40   22   40 1
  41   23   24 ar
  42   23   41 1
  43   24   25 ar
  44   24   42 1
  45   25   27 1

#	End of record

