#	Name: ASD09380011
#	Creating user name:	WinNT
#	Creation time:	15. 06. 2019 21:21

#	Modifying user name:	WinNT
#	Modification time:	15. 06. 2019 21:21

#	Program:	/corina/corina34_cracker 3.40 0067  02.08.2006

@<TRIPOS>MOLECULE
ASD09380011
  68   72    0    0    0
SMALL
NO_CHARGES


@<TRIPOS>ATOM
   1 O1             0.0021    -0.0041     0.0020 O.2     
   2 C2            -0.0143     1.2041     0.0087 C.2     
   3 O3             1.1389     1.8910     0.0013 O.3     
   4 C4            -1.3295     1.9397     0.0189 C.3     
   5 C5            -2.6086     1.0996     0.0148 C.3     
   6 C6            -2.1811     1.8454     1.2861 C.3     
   7 C7            -3.2219     2.9043     1.5491 C.ar    
   8 C8            -3.3103     3.8488     2.5578 C.ar    
   9 N9            -4.3195     4.6958     2.6069 N.ar    
  10 C10           -5.2835     4.6802     1.7017 C.ar    
  11 C11           -5.2595     3.7602     0.6619 C.ar    
  12 C12           -4.2107     2.8572     0.5836 C.ar    
  13 C13           -3.9176     1.7575    -0.4438 C.3     
  14 O14           -6.3042     5.5697     1.7900 O.3     
  15 C15           -6.2706     6.4893     2.8833 C.3     
  16 C16           -7.4754     7.3921     2.8175 C.ar    
  17 C17           -7.4106     8.5795     2.1105 C.ar    
  18 C18           -8.5125     9.4129     2.0459 C.ar    
  19 C19           -9.6839     9.0634     2.6870 C.ar    
  20 C20           -9.7549     7.8685     3.4002 C.ar    
  21 C21           -8.6429     7.0302     3.4579 C.ar    
  22 C22          -11.0111     7.4877     4.0917 C.ar    
  23 C23          -12.1618     7.2203     3.3521 C.ar    
  24 C24          -12.1316     7.3171     1.8485 C.3     
  25 C25          -13.3280     6.8666     3.9976 C.ar    
  26 C26          -13.3567     6.7772     5.3828 C.ar    
  27 C27          -12.2121     7.0434     6.1221 C.ar    
  28 C28          -11.0413     7.3911     5.4818 C.ar    
  29 C29           -9.7974     7.6729     6.2846 C.3     
  30 O30          -14.5072     6.4289     6.0161 O.3     
  31 C31          -14.4660     6.3560     7.4427 C.3     
  32 C32          -15.8434     5.9525     7.9727 C.3     
  33 C33          -15.7993     5.8744     9.5000 C.3     
  34 S34          -17.4323     5.3960    10.1284 S.o2    
  35 O35          -18.3540     6.4362     9.8321 O.2     
  36 O36          -17.7154     4.0733     9.6928 O.2     
  37 C37          -17.1505     5.3665    11.9201 C.3     
  38 H38            1.9569     1.3754    -0.0092 H       
  39 H39           -1.3450     2.8822    -0.5285 H       
  40 H40           -2.5362     0.0148    -0.0627 H       
  41 H41           -1.7893     1.3025     2.1462 H       
  42 H42           -2.5417     3.8921     3.3153 H       
  43 H43           -6.0475     3.7486    -0.0766 H       
  44 H44           -3.8039     2.1961    -1.4351 H       
  45 H45           -4.7271     1.0276    -0.4479 H       
  46 H46           -6.2812     5.9371     3.8230 H       
  47 H47           -5.3628     7.0899     2.8251 H       
  48 H48           -6.4961     8.8569     1.6074 H       
  49 H49           -8.4562    10.3390     1.4932 H       
  50 H50          -10.5436     9.7151     2.6362 H       
  51 H51           -8.6937     6.1011     4.0061 H       
  52 H52          -11.8566     6.3500     1.4276 H       
  53 H53          -13.1172     7.6054     1.4831 H       
  54 H54          -11.3990     8.0659     1.5473 H       
  55 H55          -14.2200     6.6593     3.4251 H       
  56 H56          -12.2375     6.9738     7.1996 H       
  57 H57           -9.7628     8.7317     6.5412 H       
  58 H58           -9.8119     7.0779     7.1978 H       
  59 H59           -8.9180     7.4129     5.6954 H       
  60 H60          -13.7278     5.6141     7.7474 H       
  61 H61          -14.1915     7.3296     7.8485 H       
  62 H62          -16.5815     6.6944     7.6680 H       
  63 H63          -16.1179     4.9788     7.5668 H       
  64 H64          -15.0611     5.1325     9.8047 H       
  65 H65          -15.5248     6.8480     9.9059 H       
  66 H66          -16.8363     6.3551    12.2548 H       
  67 H67          -18.0733     5.0872    12.4286 H       
  68 H68          -16.3726     4.6396    12.1537 H       
@<TRIPOS>BOND
   1    1    2 2
   2    2    3 1
   3    2    4 1
   4    3   38 1
   5    4    6 1
   6    4   39 1
   7    4    5 1
   8    5   40 1
   9    5    6 1
  10    5   13 1
  11    6   41 1
  12    6    7 1
  13    7    8 ar
  14    7   12 ar
  15    8   42 1
  16    8    9 ar
  17    9   10 ar
  18   10   11 ar
  19   10   14 1
  20   11   12 ar
  21   11   43 1
  22   12   13 1
  23   13   44 1
  24   13   45 1
  25   14   15 1
  26   15   46 1
  27   15   47 1
  28   15   16 1
  29   16   21 ar
  30   16   17 ar
  31   17   48 1
  32   17   18 ar
  33   18   19 ar
  34   18   49 1
  35   19   20 ar
  36   19   50 1
  37   20   21 ar
  38   20   22 1
  39   21   51 1
  40   22   23 ar
  41   22   28 ar
  42   23   25 ar
  43   23   24 1
  44   24   52 1
  45   24   53 1
  46   24   54 1
  47   25   26 ar
  48   25   55 1
  49   26   30 1
  50   26   27 ar
  51   27   56 1
  52   27   28 ar
  53   28   29 1
  54   29   57 1
  55   29   58 1
  56   29   59 1
  57   30   31 1
  58   31   32 1
  59   31   60 1
  60   31   61 1
  61   32   62 1
  62   32   63 1
  63   32   33 1
  64   33   34 1
  65   33   64 1
  66   33   65 1
  67   34   35 2
  68   34   37 1
  69   34   36 2
  70   37   66 1
  71   37   67 1
  72   37   68 1

#	End of record

