#	Name: ASD01000017
#	Creating user name:	WinNT
#	Creation time:	15. 06. 2019 18:54

#	Modifying user name:	WinNT
#	Modification time:	15. 06. 2019 18:54

#	Program:	/corina/corina34_cracker 3.40 0067  02.08.2006

@<TRIPOS>MOLECULE
ASD01000017
  42   43    0    0    0
SMALL
NO_CHARGES


@<TRIPOS>ATOM
   1 C1            -0.4454     1.5976    -0.4701 C.ar    
   2 C2            -0.2849     0.2220    -0.3934 C.ar    
   3 C3            -1.3887    -0.5931    -0.2314 C.ar    
   4 C4            -2.6522    -0.0388    -0.1457 C.ar    
   5 C5            -2.8149     1.3324    -0.2223 C.ar    
   6 C6            -1.7141     2.1520    -0.3781 C.ar    
   7 C7            -1.2151    -2.0878    -0.1484 C.3     
   8 N8            -2.1366    -2.5954     0.8820 N.am    
   9 C9            -1.3687    -2.6542    -1.5455 C.2     
  10 C10           -2.3333    -3.5785    -1.7465 C.2     
  11 N11           -3.1410    -3.9873    -0.7254 N.am    
  12 C12           -3.0494    -3.5210     0.5264 C.2     
  13 C13           -0.5313    -2.2294    -2.6029 C.2     
  14 O14           -0.9916    -1.3488    -3.5160 O.3     
  15 S15           -4.1268    -4.1205     1.7141 S.2     
  16 O16            0.6043    -2.6578    -2.6893 O.2     
  17 O17            0.6387     2.4015    -0.6295 O.3     
  18 C18           -0.0915    -0.9635    -4.5569 C.3     
  19 C19           -0.7854     0.0323    -5.4885 C.3     
  20 C20           -1.9363    -6.0809    -4.6175 C.3     
  21 C21           -1.7461    -5.4830    -3.2220 C.3     
  22 C22           -2.5206    -4.1674    -3.1210 C.3     
  23 H23            0.7019    -0.2116    -0.4606 H       
  24 H24           -3.5138    -0.6776    -0.0190 H       
  25 H25           -3.8031     1.7630    -0.1558 H       
  26 H26           -1.8416     3.2228    -0.4375 H       
  27 H27           -0.1964    -2.2869     0.1842 H       
  28 H28           -2.0876    -2.2716     1.7951 H       
  29 H29           -3.8197    -4.6531    -0.9173 H       
  30 H30            0.8671     2.5753    -1.5529 H       
  31 H31            0.7915    -0.4973    -4.1196 H       
  32 H32            0.2065    -1.8451    -5.1244 H       
  33 H33           -0.0988     0.3262    -6.2825 H       
  34 H34           -1.6683    -0.4339    -5.9258 H       
  35 H35           -1.0834     0.9139    -4.9210 H       
  36 H36           -2.9959    -6.2688    -4.7909 H       
  37 H37           -1.5640    -5.3817    -5.3662 H       
  38 H38           -1.3846    -7.0182    -4.6895 H       
  39 H39           -2.1185    -6.1823    -2.4733 H       
  40 H40           -0.6866    -5.2952    -3.0486 H       
  41 H41           -3.5802    -4.3553    -3.2945 H       
  42 H42           -2.1483    -3.4682    -3.8697 H       
@<TRIPOS>BOND
   1    1    2 ar
   2    1   17 1
   3    1    6 ar
   4    2    3 ar
   5    2   23 1
   6    3    4 ar
   7    3    7 1
   8    4    5 ar
   9    4   24 1
  10    5    6 ar
  11    5   25 1
  12    6   26 1
  13    7    8 1
  14    7    9 1
  15    7   27 1
  16    8   12 am
  17    8   28 1
  18    9   10 2
  19    9   13 1
  20   10   22 1
  21   10   11 1
  22   11   12 am
  23   11   29 1
  24   12   15 2
  25   13   14 1
  26   13   16 2
  27   14   18 1
  28   17   30 1
  29   18   19 1
  30   18   31 1
  31   18   32 1
  32   19   33 1
  33   19   34 1
  34   19   35 1
  35   20   21 1
  36   20   36 1
  37   20   37 1
  38   20   38 1
  39   21   22 1
  40   21   39 1
  41   21   40 1
  42   22   41 1
  43   22   42 1

#	End of record

