#	Name: ASD05720241
#	Creating user name:	WinNT
#	Creation time:	15. 06. 2019 21:02

#	Modifying user name:	WinNT
#	Modification time:	15. 06. 2019 21:02

#	Program:	/corina/corina34_cracker 3.40 0067  02.08.2006

@<TRIPOS>MOLECULE
ASD05720241
  50   55    0    0    0
SMALL
NO_CHARGES


@<TRIPOS>ATOM
   1 O1            -0.0161     1.3334     0.0094 O.3     
   2 C2             0.0021    -0.0041     0.0020 C.2     
   3 N3             1.2348    -0.5293    -0.0126 N.am    
   4 C4             2.2183     0.5645    -0.0161 C.3     
   5 C5             1.3508     1.8379    -0.0010 C.3     
   6 O6            -1.0069    -0.6808     0.0087 O.2     
   7 C7             3.0621     0.5136    -1.2636 C.ar    
   8 C8             4.4174     0.7764    -1.1925 C.ar    
   9 C9             5.1915     0.7298    -2.3369 C.ar    
  10 C10            4.6103     0.4199    -3.5522 C.ar    
  11 C11            3.2552     0.1562    -3.6232 C.ar    
  12 C12            2.4820     0.1985    -2.4781 C.ar    
  13 C13            3.0997    -3.5829    -0.0460 C.2     
  14 N14            2.7934    -2.2820    -0.0360 N.2     
  15 C15            1.5348    -1.8851    -0.0223 C.2     
  16 C16            0.4949    -2.8369    -0.0171 C.2     
  17 C17            0.8013    -4.1541    -0.0267 C.2     
  18 N18            2.1145    -4.5344    -0.0412 N.pl3   
  19 N19            2.7295    -5.7913    -0.0540 N.2     
  20 C20            4.0305    -5.6367    -0.0661 C.2     
  21 C21            4.3229    -4.2670    -0.0674 C.2     
  22 C22            5.6705    -3.6565    -0.0859 C.ar    
  23 C23            6.6415    -4.0801     0.8242 C.ar    
  24 C24            7.8949    -3.5125     0.8072 C.ar    
  25 C25            8.1963    -2.5127    -0.1209 C.ar    
  26 C26            7.2249    -2.0894    -1.0316 C.ar    
  27 C27            5.9732    -2.6607    -1.0174 C.ar    
  28 C28            9.5419    -1.9027    -0.1391 C.2     
  29 N29           10.5386    -2.2119     0.6614 N.2     
  30 C30           11.6008    -1.4576     0.3554 C.2     
  31 C31           11.2666    -0.6472    -0.6690 C.2     
  32 N32            9.9652    -0.9260    -0.9933 N.pl3   
  33 H33            2.8457     0.5180     0.8740 H       
  34 H34            1.5314     2.4339    -0.8956 H       
  35 H35            1.5485     2.4243     0.8964 H       
  36 H36            4.8714     1.0186    -0.2430 H       
  37 H37            6.2502     0.9358    -2.2814 H       
  38 H38            5.2150     0.3842    -4.4464 H       
  39 H39            2.8012    -0.0856    -4.5728 H       
  40 H40            1.4239    -0.0111    -2.5330 H       
  41 H41           -0.5366    -2.5172    -0.0052 H       
  42 H42            0.0176    -4.8972    -0.0225 H       
  43 H43            4.7582    -6.4346    -0.0775 H       
  44 H44            6.4084    -4.8530     1.5417 H       
  45 H45            8.6455    -3.8396     1.5115 H       
  46 H46            7.4577    -1.3165    -1.7491 H       
  47 H47            5.2234    -2.3362    -1.7237 H       
  48 H48           12.5624    -1.4920     0.8459 H       
  49 H49           11.9055     0.0809    -1.1465 H       
  50 H50            9.4431    -0.5075    -1.6955 H       
@<TRIPOS>BOND
   1    1    2 1
   2    1    5 1
   3    2    3 am
   4    2    6 2
   5    3    4 1
   6    3   15 1
   7    4    5 1
   8    4    7 1
   9    4   33 1
  10    5   34 1
  11    5   35 1
  12    7    8 ar
  13    7   12 ar
  14    8    9 ar
  15    8   36 1
  16    9   10 ar
  17    9   37 1
  18   10   11 ar
  19   10   38 1
  20   11   12 ar
  21   11   39 1
  22   12   40 1
  23   13   14 1
  24   13   18 1
  25   13   21 2
  26   14   15 2
  27   15   16 1
  28   16   17 2
  29   16   41 1
  30   17   18 1
  31   17   42 1
  32   18   19 1
  33   19   20 2
  34   20   21 1
  35   20   43 1
  36   21   22 1
  37   22   23 ar
  38   22   27 ar
  39   23   24 ar
  40   23   44 1
  41   24   25 ar
  42   24   45 1
  43   25   26 ar
  44   25   28 1
  45   26   27 ar
  46   26   46 1
  47   27   47 1
  48   28   29 2
  49   28   32 1
  50   29   30 1
  51   30   31 2
  52   30   48 1
  53   31   32 1
  54   31   49 1
  55   32   50 1

#	End of record

