#	Name: ASD02560410
#	Creating user name:	WinNT
#	Creation time:	15. 06. 2019 20:25

#	Modifying user name:	WinNT
#	Modification time:	15. 06. 2019 20:25

#	Program:	/corina/corina34_cracker 3.40 0067  02.08.2006

@<TRIPOS>MOLECULE
ASD02560410
  42   44    0    0    0
SMALL
NO_CHARGES


@<TRIPOS>ATOM
   1 C1             0.1615     2.1154     0.2707 C.2     
   2 C2            -0.0327     0.7241     0.2042 C.2     
   3 C3             1.0252    -0.1098     0.1540 C.2     
   4 N4             2.3024     0.3834     0.1669 N.pl3   
   5 C5             2.5235     1.7402     0.2315 C.2     
   6 C6             1.4229     2.6217     0.2844 C.2     
   7 C7             3.5254    -0.2268     0.1259 C.2     
   8 C8             4.4726     0.7748     0.1664 C.2     
   9 N9             3.8288     1.9548     0.2301 N.2     
  10 C10            5.9419     0.5848     0.1441 C.ar    
  11 N11            3.7684    -1.5989     0.0567 N.3     
  12 C12            2.5244    -2.3628     0.2216 C.3     
  13 C13            1.8196    -2.4876    -1.1307 C.3     
  14 C14            6.5406    -0.3441     0.9941 C.ar    
  15 C15            2.8501    -3.7583     0.7577 C.3     
  16 C16            3.4414    -3.6392     2.1638 C.3     
  17 C17            3.7671    -5.0347     2.6999 C.3     
  18 C18            7.9097    -0.5166     0.9689 C.ar    
  19 C19            8.6884     0.2299     0.1030 C.ar    
  20 C20            8.1010     1.1534    -0.7434 C.ar    
  21 C21            6.7318     1.3310    -0.7321 C.ar    
  22 Cl22           5.9960     2.4900    -1.7945 Cl      
  23 H23           -0.6892     2.7798     0.3062 H       
  24 H24           -1.0348     0.3215     0.1936 H       
  25 H25            0.8639    -1.1764     0.1035 H       
  26 H26            1.5812     3.6889     0.3350 H       
  27 H27            4.2297    -1.8414    -0.8072 H       
  28 H28            1.8716    -1.8464     0.9253 H       
  29 H29            1.5876    -1.4935    -1.5126 H       
  30 H30            2.4725    -3.0040    -1.8344 H       
  31 H31            0.8966    -3.0544    -1.0083 H       
  32 H32            5.9341    -0.9272     1.6713 H       
  33 H33            1.9385    -4.3546     0.7962 H       
  34 H34            3.5725    -4.2409     0.0995 H       
  35 H35            4.3530    -3.0429     2.1253 H       
  36 H36            2.7190    -3.1566     2.8221 H       
  37 H37            4.1883    -4.9499     3.7017 H       
  38 H38            2.8555    -5.6310     2.7384 H       
  39 H39            4.4895    -5.5173     2.0417 H       
  40 H40            8.3742    -1.2360     1.6271 H       
  41 H41            9.7593     0.0914     0.0878 H       
  42 H42            8.7142     1.7333    -1.4172 H       
@<TRIPOS>BOND
   1    1    2 1
   2    1    6 2
   3    1   23 1
   4    2    3 2
   5    2   24 1
   6    3    4 1
   7    3   25 1
   8    4    5 1
   9    4    7 1
  10    5    6 1
  11    5    9 2
  12    6   26 1
  13    7    8 2
  14    7   11 1
  15    8    9 1
  16    8   10 1
  17   10   14 ar
  18   10   21 ar
  19   11   12 1
  20   11   27 1
  21   12   13 1
  22   12   15 1
  23   12   28 1
  24   13   29 1
  25   13   30 1
  26   13   31 1
  27   14   18 ar
  28   14   32 1
  29   15   16 1
  30   15   33 1
  31   15   34 1
  32   16   17 1
  33   16   35 1
  34   16   36 1
  35   17   37 1
  36   17   38 1
  37   17   39 1
  38   18   19 ar
  39   18   40 1
  40   19   20 ar
  41   19   41 1
  42   20   21 ar
  43   20   42 1
  44   21   22 1

#	End of record

