#	Name: ASD03451012
#	Creating user name:	WinNT
#	Creation time:	15. 06. 2019 20:42

#	Modifying user name:	WinNT
#	Modification time:	15. 06. 2019 20:42

#	Program:	/corina/corina34_cracker 3.40 0067  02.08.2006

@<TRIPOS>MOLECULE
ASD03451012
  43   46    0    0    0
SMALL
NO_CHARGES


@<TRIPOS>ATOM
   1 C1            -0.1216     1.5466     0.1162 C.ar    
   2 C2            -0.1114     0.1695     0.2524 C.ar    
   3 C3            -1.3111    -0.5168     0.2660 C.ar    
   4 C4            -2.5073     0.2065     0.1411 C.ar    
   5 C5            -2.4426     1.6003     0.0130 C.ar    
   6 N6            -1.2510     2.2094     0.0085 N.ar    
   7 C7            -3.7699    -0.5450     0.1463 C.2     
   8 N8            -4.7744    -0.2796    -0.6184 N.2     
   9 C9            -4.7357     0.8357    -1.5644 C.3     
  10 C10           -4.5881     2.1193    -0.7961 C.2     
  11 N11           -3.5409     2.3879    -0.0984 N.2     
  12 C12           -3.8974    -1.6803     1.0898 C.ar    
  13 C13           -3.1053    -1.7299     2.2366 C.ar    
  14 C14           -3.2290    -2.7895     3.1117 C.ar    
  15 C15           -4.1364    -3.8014     2.8534 C.ar    
  16 C16           -4.9249    -3.7577     1.7175 C.ar    
  17 C17           -4.8141    -2.7006     0.8376 C.ar    
  18 C18           -3.5632     0.6672    -2.4960 C.2     
  19 S19           -2.6142     1.9809    -3.1794 S.3     
  20 C20           -1.5924     0.8358    -4.0385 C.2     
  21 C21           -1.9983    -0.4081    -3.7791 C.2     
  22 C22           -3.0828    -0.5013    -2.9240 C.2     
  23 C23            1.1839     2.2992     0.0974 C.3     
  24 N24           -5.6002     3.0320    -0.8407 N.pl3   
  25 C25           -5.4837     4.2916    -0.1017 C.3     
  26 H26            0.8234    -0.3630     0.3465 H       
  27 H27           -1.3278    -1.5916     0.3706 H       
  28 H28           -5.6613     0.8589    -2.1398 H       
  29 H29           -2.3964    -0.9407     2.4391 H       
  30 H30           -2.6159    -2.8292     3.9999 H       
  31 H31           -4.2293    -4.6289     3.5411 H       
  32 H32           -5.6315    -4.5506     1.5211 H       
  33 H33           -5.4304    -2.6674    -0.0487 H       
  34 H34           -0.7633     1.0994    -4.6784 H       
  35 H35           -1.5150    -1.2768    -4.2012 H       
  36 H36           -3.5119    -1.4481    -2.6309 H       
  37 H37            1.5420     2.3799    -0.9289 H       
  38 H38            1.0341     3.2971     0.5095 H       
  39 H39            1.9200     1.7648     0.6980 H       
  40 H40           -6.3972     2.8473    -1.3617 H       
  41 H41           -6.3827     4.8881    -0.2565 H       
  42 H42           -5.3667     4.0799     0.9611 H       
  43 H43           -4.6150     4.8440    -0.4599 H       
@<TRIPOS>BOND
   1    1    2 ar
   2    1   23 1
   3    1    6 ar
   4    2    3 ar
   5    2   26 1
   6    3    4 ar
   7    3   27 1
   8    4    5 ar
   9    4    7 1
  10    5    6 ar
  11    5   11 1
  12    7    8 2
  13    7   12 1
  14    8    9 1
  15    9   10 1
  16    9   18 1
  17    9   28 1
  18   10   11 2
  19   10   24 1
  20   12   13 ar
  21   12   17 ar
  22   13   14 ar
  23   13   29 1
  24   14   15 ar
  25   14   30 1
  26   15   16 ar
  27   15   31 1
  28   16   17 ar
  29   16   32 1
  30   17   33 1
  31   18   19 1
  32   18   22 2
  33   19   20 1
  34   20   21 2
  35   20   34 1
  36   21   22 1
  37   21   35 1
  38   22   36 1
  39   23   37 1
  40   23   38 1
  41   23   39 1
  42   24   25 1
  43   24   40 1
  44   25   41 1
  45   25   42 1
  46   25   43 1

#	End of record

