#	Name: ASD01028816
#	Creating user name:	WinNT
#	Creation time:	15. 06. 2019 18:58

#	Modifying user name:	WinNT
#	Modification time:	15. 06. 2019 18:58

#	Program:	/corina/corina34_cracker 3.40 0067  02.08.2006

@<TRIPOS>MOLECULE
ASD01028816
  40   41    0    0    0
SMALL
NO_CHARGES


@<TRIPOS>ATOM
   1 C1            -0.0162     1.3436     0.0094 C.2     
   2 N2             0.0021    -0.0041     0.0020 N.am    
   3 O3             1.0278     1.9654     0.0028 O.2     
   4 O4            -1.1914     2.0009     0.0186 O.3     
   5 C5            -1.2565    -0.7538     0.0100 C.3     
   6 C6             2.7492    -2.2440    -0.0362 C.2     
   7 C7             3.2383    -3.5634    -0.0472 C.2     
   8 C8             2.3517    -4.5963    -0.0437 C.2     
   9 C9             0.9724    -4.3431    -0.0297 C.2     
  10 N10            0.5117    -3.1211    -0.0189 N.2     
  11 N11            1.3863    -2.0331    -0.0221 N.pl3   
  12 N12            2.4156    -0.1398    -0.0197 N.2     
  13 N13            3.3219    -1.0538    -0.0307 N.2     
  14 C14            1.2191    -0.6849    -0.0133 C.2     
  15 C15            0.0063    -5.4997    -0.0269 C.3     
  16 C16           -1.4277    -4.9664    -0.0109 C.3     
  17 O17            0.2071    -6.2909    -1.1998 O.3     
  18 C18           -1.1351     3.4518     0.0262 C.3     
  19 C19           -0.4006     3.9403    -1.2239 C.3     
  20 C20           -2.5567     4.0173     0.0360 C.3     
  21 C21           -0.3887     3.9267     1.2745 C.3     
  22 H22           -1.5785    -0.9342    -1.0156 H       
  23 H23           -1.1084    -1.7071     0.5173 H       
  24 H24           -2.0192    -0.1778     0.5342 H       
  25 H25            4.3013    -3.7537    -0.0587 H       
  26 H26            2.7118    -5.6145    -0.0520 H       
  27 H27            0.1758    -6.1127     0.8583 H       
  28 H28           -1.5972    -4.3534    -0.8962 H       
  29 H29           -2.1265    -5.8029    -0.0090 H       
  30 H30           -1.5809    -4.3628     0.8837 H       
  31 H31            0.0728    -5.8088    -2.0272 H       
  32 H32           -0.9323     3.6020    -2.1132 H       
  33 H33           -0.3583     5.0294    -1.2182 H       
  34 H34            0.6122     3.5374    -1.2309 H       
  35 H35           -3.0800     3.6694     0.9266 H       
  36 H36           -2.5144     5.1065     0.0417 H       
  37 H37           -3.0885     3.6790    -0.8533 H       
  38 H38            0.6241     3.5238     1.2675 H       
  39 H39           -0.3464     5.0159     1.2802 H       
  40 H40           -0.9120     3.5787     2.1651 H       
@<TRIPOS>BOND
   1    1    2 am
   2    1    3 2
   3    1    4 1
   4    2    5 1
   5    2   14 1
   6    4   18 1
   7    5   22 1
   8    5   23 1
   9    5   24 1
  10    6    7 1
  11    6   11 1
  12    6   13 2
  13    7    8 2
  14    7   25 1
  15    8    9 1
  16    8   26 1
  17    9   10 2
  18    9   15 1
  19   10   11 1
  20   11   14 1
  21   12   13 1
  22   12   14 2
  23   15   16 1
  24   15   17 1
  25   15   27 1
  26   16   28 1
  27   16   29 1
  28   16   30 1
  29   17   31 1
  30   18   19 1
  31   18   21 1
  32   18   20 1
  33   19   32 1
  34   19   33 1
  35   19   34 1
  36   20   35 1
  37   20   36 1
  38   20   37 1
  39   21   38 1
  40   21   39 1
  41   21   40 1

#	End of record

