#	Name: ASD01900128
#	Creating user name:	WinNT
#	Creation time:	15. 06. 2019 19:51

#	Modifying user name:	WinNT
#	Modification time:	15. 06. 2019 19:51

#	Program:	/corina/corina34_cracker 3.40 0067  02.08.2006

@<TRIPOS>MOLECULE
ASD01900128
  39   42    0    0    0
SMALL
NO_CHARGES


@<TRIPOS>ATOM
   1 N1            -0.0187     1.3106     0.0352 N.ar    
   2 C2             0.0868     0.0004     0.0727 C.ar    
   3 C3            -0.7591    -0.8036    -0.6749 C.ar    
   4 C4            -1.7281    -0.2144    -1.4716 C.ar    
   5 C5            -1.8162     1.1689    -1.4917 C.ar    
   6 C6            -0.9328     1.9145    -0.7146 C.ar    
   7 C7            -1.0143     3.3935    -0.7245 C.2     
   8 N8            -0.1622     4.1203     0.0252 N.am    
   9 O9            -1.8494     3.9515    -1.4087 O.2     
  10 C10           -0.1739     5.5174    -0.0580 C.ar    
  11 C11           -1.3733     6.1918    -0.2459 C.ar    
  12 C12           -1.3845     7.5708    -0.3275 C.ar    
  13 C13           -0.1957     8.2824    -0.2215 C.ar    
  14 C14            1.0030     7.6074    -0.0336 C.ar    
  15 C15            1.0135     6.2298     0.0532 C.ar    
  16 Cl16          -2.8833     8.4145    -0.5631 Cl      
  17 N17           -0.2066     9.6825    -0.3048 N.am    
  18 C18           -0.0760    10.3783    -1.4488 C.2     
  19 C19           -0.1367    11.8154    -1.1330 C.ar    
  20 C20           -0.3104    11.8967     0.2657 C.ar    
  21 C21           -0.3547    10.5068     0.7480 C.2     
  22 S22            0.1272     9.7058    -3.0100 S.2     
  23 S23           -0.5513    10.0205     2.3777 S.2     
  24 C24           -0.0612    12.9787    -1.8870 C.ar    
  25 C25           -0.1569    14.2096    -1.2617 C.ar    
  26 C26           -0.3272    14.2909     0.1090 C.ar    
  27 C27           -0.4046    13.1410     0.8776 C.ar    
  28 Cl28          -0.6189    13.2536     2.5967 Cl      
  29 H29            0.8432    -0.4554     0.6944 H       
  30 H30           -0.6640    -1.8787    -0.6373 H       
  31 H31           -2.3989    -0.8191    -2.0637 H       
  32 H32           -2.5594     1.6615    -2.1011 H       
  33 H33            0.4591     3.6752     0.6225 H       
  34 H34           -2.2970     5.6383    -0.3286 H       
  35 H35            1.9269     8.1606     0.0488 H       
  36 H36            1.9461     5.7052     0.1998 H       
  37 H37            0.0719    12.9233    -2.9573 H       
  38 H38           -0.0979    15.1143    -1.8485 H       
  39 H39           -0.4003    15.2584     0.5834 H       
@<TRIPOS>BOND
   1    1    2 ar
   2    1    6 ar
   3    2    3 ar
   4    2   29 1
   5    3    4 ar
   6    3   30 1
   7    4    5 ar
   8    4   31 1
   9    5    6 ar
  10    5   32 1
  11    6    7 1
  12    7    8 am
  13    7    9 2
  14    8   10 1
  15    8   33 1
  16   10   11 ar
  17   10   15 ar
  18   11   12 ar
  19   11   34 1
  20   12   13 ar
  21   12   16 1
  22   13   14 ar
  23   13   17 1
  24   14   15 ar
  25   14   35 1
  26   15   36 1
  27   17   18 am
  28   17   21 am
  29   18   19 1
  30   18   22 2
  31   19   20 ar
  32   19   24 ar
  33   20   21 1
  34   20   27 ar
  35   21   23 2
  36   24   25 ar
  37   24   37 1
  38   25   26 ar
  39   25   38 1
  40   26   27 ar
  41   26   39 1
  42   27   28 1

#	End of record

