#	Name: ASD01900415
#	Creating user name:	WinNT
#	Creation time:	15. 06. 2019 19:51

#	Modifying user name:	WinNT
#	Modification time:	15. 06. 2019 19:51

#	Program:	/corina/corina34_cracker 3.40 0067  02.08.2006

@<TRIPOS>MOLECULE
ASD01900415
  30   32    0    0    0
SMALL
NO_CHARGES


@<TRIPOS>ATOM
   1 C1            -0.0875     1.1608    -0.5785 C.ar    
   2 C2             0.9998     1.7407    -1.2261 C.ar    
   3 C3             2.2577     1.1907    -1.0556 C.ar    
   4 C4             2.3866     0.0697    -0.2361 C.ar    
   5 C5             1.2582    -0.4533     0.3767 C.ar    
   6 N6             0.0728     0.0972     0.1918 N.ar    
   7 N7            -1.3580     1.7103    -0.7387 N.pl3   
   8 N8             3.6402    -0.5206    -0.0350 N.pl3   
   9 C9             6.1778    -0.2472    -0.0739 C.ar    
  10 C10            7.0081     0.8779    -0.2386 C.ar    
  11 C11            8.3918     0.7069    -0.2180 C.ar    
  12 C12            8.8900    -0.5682    -0.0355 C.ar    
  13 C13            8.0119    -1.6327     0.1206 C.ar    
  14 N14            6.7106    -1.4546     0.0987 N.ar    
  15 N15            4.8543     1.5424    -0.3289 N.2     
  16 N16            6.1867     1.9632    -0.3933 N.pl3   
  17 C17            4.8017     0.2495    -0.1474 C.2     
  18 C18           -2.5080     1.1066    -0.0609 C.3     
  19 Cl19           0.7800     3.1360    -2.2353 Cl      
  20 H20            3.1194     1.6191    -1.5458 H       
  21 H21            1.3501    -1.3215     1.0125 H       
  22 H22           -1.4811     2.4925    -1.2990 H       
  23 H23            3.7028    -1.4639     0.1824 H       
  24 H24            9.0564     1.5492    -0.3419 H       
  25 H25            9.9566    -0.7366    -0.0147 H       
  26 H26            8.4071    -2.6277     0.2627 H       
  27 H27            6.4819     2.8776    -0.5257 H       
  28 H28           -2.3463     1.1269     1.0169 H       
  29 H29           -3.4094     1.6692    -0.3037 H       
  30 H30           -2.6238     0.0744    -0.3915 H       
@<TRIPOS>BOND
   1    1    2 ar
   2    1    6 ar
   3    1    7 1
   4    2    3 ar
   5    2   19 1
   6    3    4 ar
   7    3   20 1
   8    4    5 ar
   9    4    8 1
  10    5    6 ar
  11    5   21 1
  12    7   18 1
  13    7   22 1
  14    8   17 1
  15    8   23 1
  16    9   10 ar
  17    9   14 ar
  18    9   17 1
  19   10   11 ar
  20   10   16 1
  21   11   12 ar
  22   11   24 1
  23   12   13 ar
  24   12   25 1
  25   13   14 ar
  26   13   26 1
  27   15   16 1
  28   15   17 2
  29   16   27 1
  30   18   28 1
  31   18   29 1
  32   18   30 1

#	End of record

