#	Name: ASD02038980
#	Creating user name:	WinNT
#	Creation time:	15. 06. 2019 20:17

#	Modifying user name:	WinNT
#	Modification time:	15. 06. 2019 20:17

#	Program:	/corina/corina34_cracker 3.40 0067  02.08.2006

@<TRIPOS>MOLECULE
ASD02038980
  37   40    0    0    0
SMALL
NO_CHARGES


@<TRIPOS>ATOM
   1 N1            -0.0162     1.3402     0.0094 N.am    
   2 C2             0.0021    -0.0041     0.0020 C.2     
   3 C3             1.2132    -0.7283    -0.0135 C.2     
   4 C4             2.4005    -0.0733    -0.0213 C.2     
   5 C5             2.3922     1.3908    -0.0134 C.ar    
   6 C6             3.5861     2.1197    -0.0214 C.ar    
   7 C7             3.5421     3.4992    -0.0140 C.ar    
   8 C8             2.3178     4.1638     0.0013 C.ar    
   9 C9             1.1358     3.4572     0.0093 C.ar    
  10 C10            1.1575     2.0663     0.0021 C.ar    
  11 O11           -1.0540    -0.6127     0.0093 O.2     
  12 O12            4.6992     4.2130    -0.0212 O.3     
  13 C13            4.5829     5.6373    -0.0130 C.3     
  14 O14            6.6925     6.5727     1.0570 O.3     
  15 C15            5.9581     6.2536    -0.0227 C.2     
  16 N16            6.6508     6.5733    -1.0799 N.2     
  17 N17            7.7792     7.0753    -0.7191 N.2     
  18 C18            7.8456     7.0932     0.5915 C.2     
  19 C19            8.9745     7.5914     1.4056 C.ar    
  20 C20           10.1129     8.1067     0.7837 C.ar    
  21 C21           11.1634     8.5707     1.5492 C.ar    
  22 C22           11.0889     8.5254     2.9326 C.ar    
  23 C23            9.9621     8.0148     3.5539 C.ar    
  24 C24            8.9036     7.5535     2.7988 C.ar    
  25 Cl25          12.4137     9.1107     3.8896 Cl      
  26 Cl26          12.5807     9.2116     0.7783 Cl      
  27 H27           -0.8666     1.8066     0.0160 H       
  28 H28            1.1945    -1.8081    -0.0187 H       
  29 H29            3.3320    -0.6197    -0.0328 H       
  30 H30            4.5362     1.6063    -0.0329 H       
  31 H31            2.2955     5.2435     0.0073 H       
  32 H32            0.1923     3.9827     0.0215 H       
  33 H33            4.0329     5.9620    -0.8962 H       
  34 H34            4.0496     5.9531     0.8837 H       
  35 H35           10.1717     8.1419    -0.2941 H       
  36 H36            9.9097     7.9816     4.6321 H       
  37 H37            8.0234     7.1595     3.2851 H       
@<TRIPOS>BOND
   1    1    2 am
   2    1   10 1
   3    1   27 1
   4    2    3 1
   5    2   11 2
   6    3    4 2
   7    3   28 1
   8    4    5 1
   9    4   29 1
  10    5    6 ar
  11    5   10 ar
  12    6    7 ar
  13    6   30 1
  14    7    8 ar
  15    7   12 1
  16    8    9 ar
  17    8   31 1
  18    9   10 ar
  19    9   32 1
  20   12   13 1
  21   13   15 1
  22   13   33 1
  23   13   34 1
  24   14   15 1
  25   14   18 1
  26   15   16 2
  27   16   17 1
  28   17   18 2
  29   18   19 1
  30   19   20 ar
  31   19   24 ar
  32   20   21 ar
  33   20   35 1
  34   21   22 ar
  35   21   26 1
  36   22   23 ar
  37   22   25 1
  38   23   24 ar
  39   23   36 1
  40   24   37 1

#	End of record

