#	Name: ASD01040020
#	Creating user name:	WinNT
#	Creation time:	15. 06. 2019 18:58

#	Modifying user name:	WinNT
#	Modification time:	15. 06. 2019 18:58

#	Program:	/corina/corina34_cracker 3.40 0067  02.08.2006

@<TRIPOS>MOLECULE
ASD01040020
  31   33    0    0    0
SMALL
NO_CHARGES


@<TRIPOS>ATOM
   1 C1            -0.0167     1.3839     0.0097 C.ar    
   2 C2             1.1739     2.0988     0.0021 C.ar    
   3 C3             2.3806     1.4326    -0.0135 C.ar    
   4 C4             2.4054     0.0365    -0.0212 C.ar    
   5 C5             1.2054    -0.6794    -0.0131 C.ar    
   6 C6             0.0021    -0.0041     0.0020 C.ar    
   7 Cl7            1.2283    -2.4152    -0.0227 Cl      
   8 O8            -1.2038     2.0452     0.0302 O.3     
   9 C9             3.6963    -0.6816    -0.0384 C.2     
  10 S10            5.0198    -0.3604    -1.1510 S.3     
  11 C11            5.9912    -1.6266    -0.4122 C.2     
  12 C12            5.2974    -2.2022     0.5929 C.2     
  13 C13            4.0422    -1.6805     0.8014 C.2     
  14 C14            7.3578    -2.0034    -0.8281 C.ar    
  15 C15            8.3734    -2.1163     0.1236 C.ar    
  16 C16            9.6472    -2.4680    -0.2686 C.ar    
  17 C17            9.9219    -2.7101    -1.6083 C.ar    
  18 C18            8.9161    -2.5993    -2.5585 C.ar    
  19 C19            7.6367    -2.2533    -2.1743 C.ar    
  20 Cl20           6.3774    -2.1224    -3.3621 Cl      
  21 O21           11.1794    -3.0561    -1.9901 O.3     
  22 H22            1.1543     3.1786     0.0081 H       
  23 H23            3.3058     1.9898    -0.0200 H       
  24 H24           -0.9262    -0.5561     0.0079 H       
  25 H25           -1.5347     2.2319     0.9195 H       
  26 H26            5.6989    -3.0077     1.1899 H       
  27 H27            3.3808    -2.0471     1.5725 H       
  28 H28            8.1612    -1.9280     1.1657 H       
  29 H29           10.4330    -2.5552     0.4671 H       
  30 H30            9.1342    -2.7880    -3.5993 H       
  31 H31           11.3430    -4.0092    -1.9876 H       
@<TRIPOS>BOND
   1    1    6 ar
   2    1    2 ar
   3    1    8 1
   4    2    3 ar
   5    2   22 1
   6    3    4 ar
   7    3   23 1
   8    4    9 1
   9    4    5 ar
  10    5    7 1
  11    5    6 ar
  12    6   24 1
  13    8   25 1
  14    9   10 1
  15    9   13 2
  16   10   11 1
  17   11   14 1
  18   11   12 2
  19   12   26 1
  20   12   13 1
  21   13   27 1
  22   14   19 ar
  23   14   15 ar
  24   15   16 ar
  25   15   28 1
  26   16   17 ar
  27   16   29 1
  28   17   21 1
  29   17   18 ar
  30   18   30 1
  31   18   19 ar
  32   19   20 1
  33   21   31 1

#	End of record

