#	Name: ASD05872009
#	Creating user name:	WinNT
#	Creation time:	15. 06. 2019 21:04

#	Modifying user name:	WinNT
#	Modification time:	15. 06. 2019 21:04

#	Program:	/corina/corina34_cracker 3.40 0067  02.08.2006

@<TRIPOS>MOLECULE
ASD05872009
  78   81    0    0    0
SMALL
NO_CHARGES


@<TRIPOS>ATOM
   1 C1            -0.0168     1.3875     0.0097 C.ar    
   2 C2             0.0021    -0.0041     0.0020 C.ar    
   3 C3            -1.1679    -0.7111     0.0089 C.ar    
   4 C4            -2.3862    -0.0339     0.0242 C.ar    
   5 C5            -2.4146     1.3711     0.0325 C.ar    
   6 C6            -1.2174     2.0746     0.0306 C.ar    
   7 C7            -3.7931    -0.4544     0.0341 C.2     
   8 C8            -4.5193     0.6712     0.0470 C.2     
   9 O9            -3.7097     1.7453     0.0460 O.3     
  10 C10           -4.3150    -1.8681     0.0306 C.3     
  11 C11           -6.0252     0.7260     0.0598 C.3     
  12 O12           -6.4901     0.7351     1.4110 O.3     
  13 C13           -7.8365     0.7831     1.6007 C.ar    
  14 C14           -8.6844     0.8203     0.5126 C.ar    
  15 C15          -10.0641     0.8694     0.7147 C.ar    
  16 C16          -10.5889     0.8810     2.0170 C.ar    
  17 C17           -9.7228     0.8431     3.1029 C.ar    
  18 C18           -8.3579     0.7888     2.8959 C.ar    
  19 C19          -11.2286     0.9170    -0.1785 C.2     
  20 C20          -12.3072     0.9517     0.6153 C.2     
  21 O21          -11.9327     0.9305     1.9068 O.3     
  22 C22          -11.2134     0.9256    -1.6854 C.3     
  23 C23          -13.7333     1.0060     0.1313 C.3     
  24 O24           -7.5149     0.7520     3.9626 O.3     
  25 C25           -8.1107     0.7724     5.2613 C.3     
  26 Si26           1.6351    -0.9108    -0.0184 Si      
  27 C27            2.1948    -1.2216     1.7311 C.3     
  28 C28            1.4313    -2.5374    -0.9035 C.3     
  29 C29            2.9080     0.1224    -0.9033 C.3     
  30 C30            1.1494    -2.0701     2.4578 C.3     
  31 C31            3.5324    -1.9643     1.7144 C.3     
  32 C32            2.3622     0.1142     2.4580 C.3     
  33 O33           -4.4682    -2.3226     1.3767 O.3     
  34 S34           -4.9926    -3.7467     1.4933 S.o2    
  35 O35           -5.4267    -3.9223     2.8705 O.co2   
  36 O36           -6.0966    -3.8653     0.5536 O.co2   
  37 O37           -3.8881    -4.6297     1.1523 O.co2   
  38 O38            1.1544     2.0773     0.0022 O.3     
  39 C39            1.0673     3.5036     0.0107 C.3     
  40 O40          -11.2573    -0.4180    -2.1699 O.3     
  41 S41          -11.2464    -0.5294    -3.6878 S.o2    
  42 O42          -11.6532    -1.8880    -4.0116 O.co2   
  43 O43          -12.1912     0.4572    -4.1876 O.co2   
  44 O44           -9.8856    -0.2496    -4.1191 O.co2   
  45 H45           -1.1484    -1.7909     0.0022 H       
  46 H46           -1.2235     3.1546     0.0368 H       
  47 H47           -5.2803    -1.8977    -0.4749 H       
  48 H48           -3.6105    -2.5142    -0.4931 H       
  49 H49           -6.3601     1.6317    -0.4458 H       
  50 H50           -6.4250    -0.1471    -0.4561 H       
  51 H51           -8.2823     0.8118    -0.4897 H       
  52 H52          -10.1167     0.8521     4.1084 H       
  53 H53          -12.0805     1.4734    -2.0544 H       
  54 H54          -10.3017     1.4089    -2.0368 H       
  55 H55          -14.1144    -0.0079     0.0089 H       
  56 H56          -14.3444     1.5383     0.8602 H       
  57 H57          -13.7727     1.5268    -0.8254 H       
  58 H58           -7.3289     0.7388     6.0202 H       
  59 H59           -8.6930     1.6862     5.3796 H       
  60 H60           -8.7645    -0.0924     5.3747 H       
  61 H61            1.1038    -2.3555    -1.9271 H       
  62 H62            2.3842    -3.0664    -0.9154 H       
  63 H63            0.6865    -3.1419    -0.3858 H       
  64 H64            3.0273     1.0741    -0.3855 H       
  65 H65            3.8610    -0.4066    -0.9152 H       
  66 H66            2.5806     0.3043    -1.9269 H       
  67 H67            1.0301    -3.0218     1.9400 H       
  68 H68            1.4769    -2.2520     3.4815 H       
  69 H69            0.1965    -1.5411     2.4698 H       
  70 H70            4.2771    -1.3598     1.1967 H       
  71 H71            3.8598    -2.1461     2.7380 H       
  72 H72            3.4131    -2.9160     1.1965 H       
  73 H73            1.4093     0.6433     2.4699 H       
  74 H74            2.6896    -0.0676     3.4816 H       
  75 H75            3.1070     0.7187     1.9403 H       
  76 H76            2.0708     3.9290     0.0034 H       
  77 H77            0.5238     3.8397    -0.8724 H       
  78 H78            0.5408     3.8301     0.9075 H       
@<TRIPOS>BOND
   1    1    2 ar
   2    1   38 1
   3    1    6 ar
   4    2    3 ar
   5    2   26 1
   6    3    4 ar
   7    3   45 1
   8    4    5 ar
   9    4    7 1
  10    5    6 ar
  11    5    9 1
  12    6   46 1
  13    7    8 2
  14    7   10 1
  15    8    9 1
  16    8   11 1
  17   10   33 1
  18   10   47 1
  19   10   48 1
  20   11   12 1
  21   11   49 1
  22   11   50 1
  23   12   13 1
  24   13   14 ar
  25   13   18 ar
  26   14   15 ar
  27   14   51 1
  28   15   16 ar
  29   15   19 1
  30   16   17 ar
  31   16   21 1
  32   17   18 ar
  33   17   52 1
  34   18   24 1
  35   19   20 2
  36   19   22 1
  37   20   21 1
  38   20   23 1
  39   22   40 1
  40   22   53 1
  41   22   54 1
  42   23   55 1
  43   23   56 1
  44   23   57 1
  45   24   25 1
  46   25   58 1
  47   25   59 1
  48   25   60 1
  49   26   27 1
  50   26   28 1
  51   26   29 1
  52   27   30 1
  53   27   31 1
  54   27   32 1
  55   28   61 1
  56   28   62 1
  57   28   63 1
  58   29   64 1
  59   29   65 1
  60   29   66 1
  61   30   67 1
  62   30   68 1
  63   30   69 1
  64   31   70 1
  65   31   71 1
  66   31   72 1
  67   32   73 1
  68   32   74 1
  69   32   75 1
  70   33   34 1
  71   34   35 ar
  72   34   36 ar
  73   34   37 ar
  74   38   39 1
  75   39   76 1
  76   39   77 1
  77   39   78 1
  78   40   41 1
  79   41   42 ar
  80   41   43 ar
  81   41   44 ar

#	End of record

