#	Name: ASD07300622
#	Creating user name:	WinNT
#	Creation time:	15. 06. 2019 21:10

#	Modifying user name:	WinNT
#	Modification time:	15. 06. 2019 21:10

#	Program:	/corina/corina34_cracker 3.40 0067  02.08.2006

@<TRIPOS>MOLECULE
ASD07300622
  37   40    0    0    0
SMALL
NO_CHARGES


@<TRIPOS>ATOM
   1 C1            -0.0034     1.3925     0.2414 C.2     
   2 C2             0.0021    -0.0041     0.0020 C.2     
   3 N3             1.1924     2.0682     0.2265 N.pl3   
   4 N4             1.1445    -0.6201    -0.2278 N.2     
   5 C5             2.3036     0.0470    -0.2402 C.2     
   6 C6             2.3503     1.3751    -0.0178 C.2     
   7 N7            -0.9664     2.2611     0.5002 N.2     
   8 C8            -0.4399     3.4746     0.6473 C.2     
   9 C9             0.9141     3.3817     0.4814 C.2     
  10 N10            2.8659     6.4365     0.3080 N.pl3   
  11 N11            3.7008     5.6277     1.0883 N.2     
  12 C12            3.1256     4.4650     1.2455 C.2     
  13 C13            1.8915     4.4909     0.5644 C.2     
  14 C14            1.7618     5.7258    -0.0049 C.2     
  15 N15           -1.1860    -0.7178     0.0100 N.pl3   
  16 C16           -2.4813    -0.0311     0.1360 C.3     
  17 C17           -3.4038    -0.5300    -0.9821 C.3     
  18 O18           -3.4381    -1.9591    -0.9615 O.3     
  19 C19           -2.1747    -2.5786    -1.2141 C.3     
  20 C20           -1.1896    -2.1841    -0.1135 C.3     
  21 C21           -1.2060     4.7365     0.9503 C.3     
  22 H22            3.2209    -0.4898    -0.4320 H       
  23 H23            3.2979     1.8930    -0.0323 H       
  24 H24            3.0477     7.3513     0.0415 H       
  25 H25            3.5260     3.6295     1.8005 H       
  26 H26            0.9275     6.0708    -0.5976 H       
  27 H27           -2.9242    -0.2578     1.1059 H       
  28 H28           -2.3372     1.0450     0.0402 H       
  29 H29           -4.4093    -0.1394    -0.8259 H       
  30 H30           -3.0254    -0.1888    -1.9457 H       
  31 H31           -2.2959    -3.6617    -1.2248 H       
  32 H32           -1.7918    -2.2448    -2.1785 H       
  33 H33           -0.1904    -2.5330    -0.3744 H       
  34 H34           -1.5001    -2.6313     0.8308 H       
  35 H35           -1.2753     4.8690     2.0300 H       
  36 H36           -0.6885     5.5898     0.5120 H       
  37 H37           -2.2083     4.6633     0.5282 H       
@<TRIPOS>BOND
   1    1    2 1
   2    1    3 1
   3    1    7 2
   4    2    4 2
   5    2   15 1
   6    3    6 1
   7    3    9 1
   8    4    5 1
   9    5    6 2
  10    5   22 1
  11    6   23 1
  12    7    8 1
  13    8    9 2
  14    8   21 1
  15    9   13 1
  16   10   11 1
  17   10   14 1
  18   10   24 1
  19   11   12 2
  20   12   13 1
  21   12   25 1
  22   13   14 2
  23   14   26 1
  24   15   16 1
  25   15   20 1
  26   16   17 1
  27   16   27 1
  28   16   28 1
  29   17   18 1
  30   17   29 1
  31   17   30 1
  32   18   19 1
  33   19   20 1
  34   19   31 1
  35   19   32 1
  36   20   33 1
  37   20   34 1
  38   21   35 1
  39   21   36 1
  40   21   37 1

#	End of record

