#	Name: ASD01911795
#	Creating user name:	WinNT
#	Creation time:	15. 06. 2019 19:58

#	Modifying user name:	WinNT
#	Modification time:	15. 06. 2019 19:58

#	Program:	/corina/corina34_cracker 3.40 0067  02.08.2006

@<TRIPOS>MOLECULE
ASD01911795
  45   47    0    0    0
SMALL
NO_CHARGES


@<TRIPOS>ATOM
   1 C1            -0.3477     1.5374     0.0111 C.2     
   2 N2            -0.2704     0.1894     0.3405 N.pl3   
   3 C3             1.7607     1.8522     1.0778 C.2     
   4 N4             1.7843     0.5439     1.3719 N.2     
   5 C5             0.8257    -0.2642     1.0277 C.2     
   6 C6            -1.3836    -0.4375    -0.1251 C.2     
   7 C7            -2.1824     0.5089    -0.7574 C.2     
   8 C8            -1.5092     1.7537    -0.6659 C.2     
   9 N9            -1.6717    -1.7857     0.0070 N.pl3   
  10 C10           -0.9243    -2.7331    -0.6999 C.ar    
  11 C11           -1.2550    -4.0824    -0.6210 C.ar    
  12 C12            0.1458    -2.3289    -1.4865 C.ar    
  13 C13            0.8822    -3.2670    -2.1843 C.ar    
  14 C14            0.5551    -4.6081    -2.1004 C.ar    
  15 C15           -0.5139    -5.0154    -1.3218 C.ar    
  16 F16           -2.2985    -4.4799     0.1395 F       
  17 I17            1.6756    -6.0254    -3.1608 I       
  18 C18           -3.4780     0.2641    -1.4037 C.2     
  19 N19           -4.1462     1.2824    -1.9808 N.am    
  20 O20           -3.9483    -0.8581    -1.4182 O.2     
  21 O21           -5.3956     1.0464    -2.6041 O.3     
  22 C22           -5.9908     2.2140    -3.1736 C.3     
  23 C23           -7.3289     1.8427    -3.8159 C.3     
  24 O24           -7.9241     3.0104    -4.3855 O.3     
  25 C25            0.7160     2.3897     0.4012 C.2     
  26 C26           -6.2230     3.2549    -2.0766 C.3     
  27 C27           -5.0577     2.7945    -4.2382 C.3     
  28 H28            2.5806     2.4842     1.3854 H       
  29 H29            0.8940    -1.3102     1.2877 H       
  30 H30           -1.8561     2.6991    -1.0560 H       
  31 H31           -2.3919    -2.0729     0.5899 H       
  32 H32            0.4023    -1.2819    -1.5533 H       
  33 H33            1.7145    -2.9524    -2.7965 H       
  34 H34           -0.7669    -6.0635    -1.2583 H       
  35 H35           -3.7713     2.1769    -1.9692 H       
  36 H36           -7.1634     1.1012    -4.5975 H       
  37 H37           -7.9936     1.4292    -3.0575 H       
  38 H38           -8.7773     2.8492    -4.8111 H       
  39 H39            0.6947     3.4433     0.1644 H       
  40 H40           -5.2697     3.5194    -1.6191 H       
  41 H41           -6.6770     4.1456    -2.5111 H       
  42 H42           -6.8877     2.8414    -1.3182 H       
  43 H43           -4.8923     2.0529    -5.0198 H       
  44 H44           -5.5117     3.6851    -4.6727 H       
  45 H45           -4.1044     3.0590    -3.7806 H       
@<TRIPOS>BOND
   1    1    2 1
   2    1   25 1
   3    1    8 2
   4    2    6 1
   5    2    5 1
   6    3    4 1
   7    3   25 2
   8    3   28 1
   9    4    5 2
  10    5   29 1
  11    6    7 2
  12    6    9 1
  13    7    8 1
  14    7   18 1
  15    8   30 1
  16    9   10 1
  17    9   31 1
  18   10   11 ar
  19   10   12 ar
  20   11   16 1
  21   11   15 ar
  22   12   13 ar
  23   12   32 1
  24   13   14 ar
  25   13   33 1
  26   14   15 ar
  27   14   17 1
  28   15   34 1
  29   18   19 am
  30   18   20 2
  31   19   21 1
  32   19   35 1
  33   21   22 1
  34   22   23 1
  35   22   26 1
  36   22   27 1
  37   23   24 1
  38   23   36 1
  39   23   37 1
  40   24   38 1
  41   25   39 1
  42   26   40 1
  43   26   41 1
  44   26   42 1
  45   27   43 1
  46   27   44 1
  47   27   45 1

#	End of record

