#	Name: ASD01948271
#	Creating user name:	WinNT
#	Creation time:	15. 06. 2019 20:14

#	Modifying user name:	WinNT
#	Modification time:	15. 06. 2019 20:14

#	Program:	/corina/corina34_cracker 3.40 0067  02.08.2006

@<TRIPOS>MOLECULE
ASD01948271
  49   52    0    0    0
SMALL
NO_CHARGES


@<TRIPOS>ATOM
   1 C1             0.3169     2.1264     2.5880 C.ar    
   2 C2            -0.5295     2.5883     1.5953 C.ar    
   3 C3            -0.0087     3.1587     0.4482 C.ar    
   4 C4             1.3594     3.2697     0.2888 C.ar    
   5 C5             2.2126     2.8078     1.2818 C.ar    
   6 C6             1.6865     2.2341     2.4352 C.ar    
   7 C7             3.8049     0.6265     0.3754 C.ar    
   8 C8             4.3763     1.7674     0.9356 C.ar    
   9 N9             3.5974     2.9188     1.1232 N.pl3   
  10 C10            4.5618    -0.5113     0.1865 C.ar    
  11 C11            5.9101    -0.5209     0.5589 C.ar    
  12 C12            6.4857     0.6262     1.1230 C.ar    
  13 C13            5.7150     1.7688     1.3098 C.ar    
  14 N14            6.2872     2.9197     1.8738 N.am    
  15 I15           -2.6046     2.4224     1.8306 I       
  16 F16            4.0018    -1.6143    -0.3567 F       
  17 F17            2.5129     1.7837     3.4044 F       
  18 F18            2.5013     0.6330     0.0205 F       
  19 O19            7.7782     0.3167     1.3736 O.3     
  20 C20            7.9871    -0.9516     0.9850 C.2     
  21 N21            6.8940    -1.4601     0.5023 N.2     
  22 S22            7.9179     2.9807     2.1554 S.o2    
  23 O23            8.1007     4.1781     2.8984 O.2     
  24 O24            8.2235     1.7136     2.7212 O.2     
  25 C25            8.6566     3.1361     0.5059 C.3     
  26 C26           10.1830     3.0947     0.4087 C.3     
  27 C27            9.3530     1.9039    -0.0752 C.3     
  28 C28            7.9113     4.0517    -0.4673 C.3     
  29 C29            6.5697     3.4169    -0.8388 C.3     
  30 O30            5.5722     3.8289     0.0978 O.3     
  31 C31            6.1653     3.8651    -2.2447 C.3     
  32 O32            4.9729     3.1826    -2.6377 O.3     
  33 H33           -0.0930     1.6855     3.4847 H       
  34 H34           -0.6724     3.5177    -0.3245 H       
  35 H35            1.7646     3.7151    -0.6078 H       
  36 H36            4.0194     3.7919     1.1429 H       
  37 H37            5.7274     3.6793     2.0986 H       
  38 H38            8.9292    -1.4740     1.0628 H       
  39 H39           10.6561     3.7194    -0.3489 H       
  40 H40           10.7433     2.9741     1.3358 H       
  41 H41            9.3673     0.9999     0.5336 H       
  42 H42            9.2801     1.7453    -1.1511 H       
  43 H43            7.7374     5.0188     0.0044 H       
  44 H44            8.5100     4.1890    -1.3678 H       
  45 H45            6.6628     2.3311    -0.8163 H       
  46 H46            5.4356     4.7856     0.1316 H       
  47 H47            5.9858     4.9402    -2.2457 H       
  48 H48            6.9663     3.6298    -2.9455 H       
  49 H49            4.6577     3.4184    -3.5209 H       
@<TRIPOS>BOND
   1    1    2 ar
   2    1    6 ar
   3    1   33 1
   4    2    3 ar
   5    2   15 1
   6    3    4 ar
   7    3   34 1
   8    4    5 ar
   9    4   35 1
  10    5    6 ar
  11    5    9 1
  12    6   17 1
  13    7    8 ar
  14    7   10 ar
  15    7   18 1
  16    8    9 1
  17    8   13 ar
  18    9   36 1
  19   10   11 ar
  20   10   16 1
  21   11   12 ar
  22   11   21 1
  23   12   13 ar
  24   12   19 1
  25   13   14 1
  26   14   22 am
  27   14   37 1
  28   19   20 1
  29   20   21 2
  30   20   38 1
  31   22   23 2
  32   22   24 2
  33   22   25 1
  34   25   26 1
  35   25   28 1
  36   25   27 1
  37   26   27 1
  38   26   39 1
  39   26   40 1
  40   27   41 1
  41   27   42 1
  42   28   29 1
  43   28   43 1
  44   28   44 1
  45   29   30 1
  46   29   31 1
  47   29   45 1
  48   30   46 1
  49   31   32 1
  50   31   47 1
  51   31   48 1
  52   32   49 1

#	End of record

