#	Name: ASD02030055
#	Creating user name:	WinNT
#	Creation time:	15. 06. 2019 20:14

#	Modifying user name:	WinNT
#	Modification time:	15. 06. 2019 20:14

#	Program:	/corina/corina34_cracker 3.40 0067  02.08.2006

@<TRIPOS>MOLECULE
ASD02030055
  31   33    0    0    0
SMALL
NO_CHARGES


@<TRIPOS>ATOM
   1 C1            -0.0168     1.3861     0.0097 C.ar    
   2 C2             0.0021    -0.0041     0.0020 C.ar    
   3 C3            -1.1754    -0.7210     0.0094 C.ar    
   4 C4            -2.3948    -0.0559     0.0246 C.ar    
   5 C5            -2.4193     1.3474     0.0324 C.ar    
   6 C6            -1.2222     2.0659     0.0306 C.ar    
   7 F7            -1.2404     3.4167     0.0385 F       
   8 O8            -3.6766    -0.4787     0.0346 O.3     
   9 N9            -4.5422     0.6384     0.0489 N.2     
  10 C10           -3.8381     1.7387     0.0480 C.2     
  11 C11           -4.3688     3.1228     0.0610 C.ar    
  12 C12           -5.5492     3.4231    -0.6194 C.ar    
  13 C13           -6.0431     4.7083    -0.6080 C.ar    
  14 C14           -5.3616     5.7120     0.0852 C.ar    
  15 C15           -4.1795     5.4101     0.7662 C.ar    
  16 C16           -3.6905     4.1230     0.7583 C.ar    
  17 O17            1.1532     2.0803     0.0022 O.3     
  18 C18            2.3607     1.3163    -0.0134 C.3     
  19 C19           -5.8900     7.0908     0.0977 C.2     
  20 O20           -6.9176     7.3529    -0.4949 O.2     
  21 O21           -5.2325     8.0582     0.7663 O.3     
  22 H22            0.9471    -0.5267    -0.0102 H       
  23 H23           -1.1497    -1.8007     0.0030 H       
  24 H24           -6.0757     2.6473    -1.1555 H       
  25 H25           -6.9567     4.9407    -1.1351 H       
  26 H26           -3.6519     6.1851     1.3024 H       
  27 H27           -2.7770     3.8893     1.2849 H       
  28 H28            2.4015     0.6830     0.8728 H       
  29 H29            2.3845     0.6926    -0.9070 H       
  30 H30            3.2172     1.9905    -0.0180 H       
  31 H31           -5.6170     8.9452     0.7457 H       
@<TRIPOS>BOND
   1    1    2 ar
   2    1   17 1
   3    1    6 ar
   4    2    3 ar
   5    2   22 1
   6    3    4 ar
   7    3   23 1
   8    4    5 ar
   9    4    8 1
  10    5    6 ar
  11    5   10 1
  12    6    7 1
  13    8    9 1
  14    9   10 2
  15   10   11 1
  16   11   12 ar
  17   11   16 ar
  18   12   13 ar
  19   12   24 1
  20   13   14 ar
  21   13   25 1
  22   14   15 ar
  23   14   19 1
  24   15   16 ar
  25   15   26 1
  26   16   27 1
  27   17   18 1
  28   18   28 1
  29   18   29 1
  30   18   30 1
  31   19   20 2
  32   19   21 1
  33   21   31 1

#	End of record

