#	Name: ASD03082363
#	Creating user name:	WinNT
#	Creation time:	15. 06. 2019 20:27

#	Modifying user name:	WinNT
#	Modification time:	15. 06. 2019 20:27

#	Program:	/corina/corina34_cracker 3.40 0067  02.08.2006

@<TRIPOS>MOLECULE
ASD03082363
  40   42    0    0    0
SMALL
NO_CHARGES


@<TRIPOS>ATOM
   1 C1            -2.4941     1.2489     0.5254 C.ar    
   2 C2            -2.4177    -0.0410     0.0154 C.ar    
   3 C3            -3.5580    -0.6535    -0.4899 C.ar    
   4 C4            -4.7626     0.0213    -0.4835 C.ar    
   5 C5            -4.8350     1.3056     0.0247 C.ar    
   6 C6            -3.7023     1.9180     0.5287 C.ar    
   7 N7            -1.1972    -0.7205     0.0101 N.pl3   
   8 C8            -1.1730    -2.1158     0.1080 C.2     
   9 C9            -0.0315    -2.9295     0.0062 C.2     
  10 N10           -2.2116    -2.8907     0.3163 N.2     
  11 N11           -1.7674    -4.2189     0.3483 N.pl3   
  12 C12           -0.4226    -4.2149     0.1551 C.2     
  13 C13           -2.5663    -5.3487     0.5483 C.ar    
  14 C14           -2.2823    -6.5487    -0.1004 C.ar    
  15 C15           -3.6640    -5.3054     1.4062 C.ar    
  16 C16           -4.4269    -6.4421     1.5767 C.ar    
  17 N17           -4.1284    -7.5589     0.9402 N.ar    
  18 C18           -3.0950    -7.6412     0.1242 C.ar    
  19 C19           -5.6160    -6.4081     2.5019 C.3     
  20 H20           -2.8851    -8.5741    -0.3779 H       
  21 C21            0.4727    -5.4265     0.1133 C.3     
  22 O22            1.8225    -5.0139    -0.1100 O.3     
  23 C23           -3.7862     3.3173     1.0818 C.3     
  24 F24           -5.1016     3.7821     0.9771 F       
  25 F25           -3.3994     3.3113     2.4263 F       
  26 F26           -2.9355     4.1576     0.3556 F       
  27 H27           -1.6107     1.7262     0.9230 H       
  28 H28           -3.5020    -1.6561    -0.8875 H       
  29 H29           -5.6493    -0.4542    -0.8761 H       
  30 H30           -5.7783     1.8314     0.0278 H       
  31 H31           -0.3664    -0.2249    -0.0615 H       
  32 H32            0.9793    -2.5881    -0.1617 H       
  33 H33           -1.4380    -6.6227    -0.7699 H       
  34 H34           -3.9136    -4.3947     1.9304 H       
  35 H35           -6.5037    -6.1139     1.9420 H       
  36 H36           -5.7695    -7.3975     2.9328 H       
  37 H37           -5.4348    -5.6883     3.3001 H       
  38 H38            0.4077    -5.9591     1.0621 H       
  39 H39            0.1555    -6.0849    -0.6955 H       
  40 H40            2.4556    -5.7438    -0.1486 H       
@<TRIPOS>BOND
   1    1    2 ar
   2    1    6 ar
   3    1   27 1
   4    2    3 ar
   5    2    7 1
   6    3    4 ar
   7    3   28 1
   8    4    5 ar
   9    4   29 1
  10    5    6 ar
  11    5   30 1
  12    6   23 1
  13    7    8 1
  14    7   31 1
  15    8    9 1
  16    8   10 2
  17    9   12 2
  18    9   32 1
  19   10   11 1
  20   11   12 1
  21   11   13 1
  22   12   21 1
  23   13   14 ar
  24   13   15 ar
  25   14   18 ar
  26   14   33 1
  27   15   16 ar
  28   15   34 1
  29   16   17 ar
  30   16   19 1
  31   17   18 ar
  32   18   20 1
  33   19   35 1
  34   19   36 1
  35   19   37 1
  36   21   22 1
  37   21   38 1
  38   21   39 1
  39   22   40 1
  40   23   24 1
  41   23   25 1
  42   23   26 1

#	End of record

