#	Name: ASD01028645
#	Creating user name:	WinNT
#	Creation time:	15. 06. 2019 18:57

#	Modifying user name:	WinNT
#	Modification time:	15. 06. 2019 18:57

#	Program:	/corina/corina34_cracker 3.40 0067  02.08.2006

@<TRIPOS>MOLECULE
ASD01028645
  28   29    0    0    0
SMALL
NO_CHARGES


@<TRIPOS>ATOM
   1 N1             0.3492     0.9625     1.0983 N.ar    
   2 C2             0.4439    -0.3450     1.0716 C.ar    
   3 C3             1.6525    -0.9878     0.8124 C.ar    
   4 C4             2.7787    -0.2518     0.5777 C.ar    
   5 C5             2.6731     1.1529     0.6073 C.ar    
   6 C6             3.7876     1.9703     0.3751 C.ar    
   7 C7             3.6406     3.3478     0.4127 C.ar    
   8 C8             2.3859     3.9222     0.6817 C.ar    
   9 C9             1.2971     3.1443     0.9092 C.ar    
  10 C10            1.4120     1.7422     0.8773 C.ar    
  11 C11            4.8097     4.2181     0.1692 C.2     
  12 O12            4.8206     5.3556     0.5981 O.2     
  13 N13            5.8640     3.7508    -0.5283 N.am    
  14 C14            6.9851     4.6393    -0.8444 C.3     
  15 O15            5.8881     2.4011    -0.9558 O.3     
  16 C16            5.4273     2.2070    -2.2944 C.3     
  17 H17           -0.4386    -0.9397     1.2557 H       
  18 H18            1.6987    -2.0668     0.7975 H       
  19 H19            3.7242    -0.7331     0.3755 H       
  20 H20            4.7523     1.5307     0.1690 H       
  21 H21            2.2870     4.9973     0.7081 H       
  22 H22            0.3409     3.6022     1.1150 H       
  23 H23            7.7244     4.5899    -0.0449 H       
  24 H24            7.4432     4.3266    -1.7827 H       
  25 H25            6.6219     5.6625    -0.9406 H       
  26 H26            5.4768     1.1476    -2.5457 H       
  27 H27            4.3968     2.5525    -2.3777 H       
  28 H28            6.0568     2.7731    -2.9810 H       
@<TRIPOS>BOND
   1    1    2 ar
   2    1   10 ar
   3    2    3 ar
   4    2   17 1
   5    3    4 ar
   6    3   18 1
   7    4    5 ar
   8    4   19 1
   9    5    6 ar
  10    5   10 ar
  11    6    7 ar
  12    6   20 1
  13    7    8 ar
  14    7   11 1
  15    8    9 ar
  16    8   21 1
  17    9   10 ar
  18    9   22 1
  19   11   12 2
  20   11   13 am
  21   13   14 1
  22   13   15 1
  23   14   23 1
  24   14   24 1
  25   14   25 1
  26   15   16 1
  27   16   26 1
  28   16   27 1
  29   16   28 1

#	End of record

