#	Name: ASD01910112
#	Creating user name:	WinNT
#	Creation time:	15. 06. 2019 19:55

#	Modifying user name:	WinNT
#	Modification time:	15. 06. 2019 19:55

#	Program:	/corina/corina34_cracker 3.40 0067  02.08.2006

@<TRIPOS>MOLECULE
ASD01910112
  40   43    0    0    0
SMALL
NO_CHARGES


@<TRIPOS>ATOM
   1 C1             0.1077     0.5123     0.3955 C.ar    
   2 C2             0.3354    -0.8499     0.4410 C.ar    
   3 C3             1.6275    -1.3490     0.3787 C.ar    
   4 C4             2.6967    -0.4750     0.2697 C.ar    
   5 C5             2.4644     0.9148     0.2229 C.ar    
   6 C6             1.1680     1.3990     0.2865 C.ar    
   7 C7             4.1626    -0.6431     0.1812 C.2     
   8 N8             4.7288     0.5737     0.0899 N.am    
   9 C9             3.7970     1.5438     0.1076 C.2     
  10 C10            6.1707     0.8113    -0.0144 C.3     
  11 C11            6.5984     0.6817    -1.4536 C.ar    
  12 C12            6.4503     1.7552    -2.3219 C.ar    
  13 C13            6.8456     1.6323    -3.6479 C.ar    
  14 C14            7.3844     0.4438    -4.0991 C.ar    
  15 C15            7.5305    -0.6248    -3.2316 C.ar    
  16 C16            7.1433    -0.5031    -1.9088 C.ar    
  17 N17            5.9037     2.9579    -1.8623 N.am    
  18 C18            5.3573     3.8270    -2.7356 C.2     
  19 C19            4.8892     5.1365    -2.2709 C.2     
  20 O20            5.2524     3.5249    -3.9099 O.2     
  21 O21            4.0143     2.7368     0.0404 O.2     
  22 O22            4.7565    -1.7024     0.1903 O.2     
  23 Cl23           8.2079    -2.1178    -3.8023 Cl      
  24 C24            4.3194     6.1063    -3.0454 C.2     
  25 C25            4.0276     7.1832    -2.1939 C.2     
  26 C26            4.4268     6.8283    -0.9526 C.2     
  27 O27            4.9406     5.5923    -1.0021 O.3     
  28 H28           -0.9036     0.8887     0.4408 H       
  29 H29           -0.4989    -1.5305     0.5260 H       
  30 H30            1.7996    -2.4146     0.4153 H       
  31 H31            0.9841     2.4626     0.2507 H       
  32 H32            6.4005     1.8147     0.3440 H       
  33 H33            6.7044     0.0783     0.5907 H       
  34 H34            6.7311     2.4656    -4.3254 H       
  35 H35            7.6919     0.3477    -5.1299 H       
  36 H36            7.2584    -1.3384    -1.2339 H       
  37 H37            5.9178     3.1665    -0.9151 H       
  38 H38            4.1304     6.0547    -4.1075 H       
  39 H39            3.5699     8.1195    -2.4774 H       
  40 H40            4.3420     7.4391    -0.0660 H       
@<TRIPOS>BOND
   1    1    2 ar
   2    1    6 ar
   3    1   28 1
   4    2    3 ar
   5    2   29 1
   6    3    4 ar
   7    3   30 1
   8    4    5 ar
   9    4    7 1
  10    5    6 ar
  11    5    9 1
  12    6   31 1
  13    7    8 am
  14    7   22 2
  15    8    9 am
  16    8   10 1
  17    9   21 2
  18   10   11 1
  19   10   32 1
  20   10   33 1
  21   11   12 ar
  22   11   16 ar
  23   12   13 ar
  24   12   17 1
  25   13   14 ar
  26   13   34 1
  27   14   15 ar
  28   14   35 1
  29   15   16 ar
  30   15   23 1
  31   16   36 1
  32   17   18 am
  33   17   37 1
  34   18   19 1
  35   18   20 2
  36   19   24 2
  37   19   27 1
  38   24   25 1
  39   24   38 1
  40   25   26 2
  41   25   39 1
  42   26   27 1
  43   26   40 1

#	End of record

