#	Name: ASD00170965
#	Creating user name:	WinNT
#	Creation time:	15. 06. 2019 18:32

#	Modifying user name:	WinNT
#	Modification time:	15. 06. 2019 18:32

#	Program:	/corina/corina34_cracker 3.40 0067  02.08.2006

@<TRIPOS>MOLECULE
ASD00170965
  48   51    0    0    0
SMALL
NO_CHARGES


@<TRIPOS>ATOM
   1 C1            -0.0629     1.2187     0.0575 C.2     
   2 O2             0.4598     0.9133     1.1141 O.2     
   3 C3             0.5887     0.8603    -1.2205 C.ar    
   4 C4             1.8519     0.2655    -1.2205 C.ar    
   5 C5             2.4545    -0.0665    -2.4155 C.ar    
   6 C6             1.8094     0.1894    -3.6143 C.ar    
   7 C7             0.5564     0.7797    -3.6206 C.ar    
   8 C8            -0.0592     1.1101    -2.4317 C.ar    
   9 Cl9            2.5747    -0.2308    -5.1148 Cl      
  10 C10           -1.4455     3.3039     0.1714 C.2     
  11 C11           -1.3391     1.9352     0.0526 C.2     
  12 C12           -2.6205     1.2835    -0.0779 C.2     
  13 C13           -3.6482     2.1413    -0.0566 C.2     
  14 S14           -3.0780     3.7905     0.1253 S.3     
  15 C15           -5.0691     1.7522    -0.1716 C.ar    
  16 C16           -5.5867     0.7401     0.6388 C.ar    
  17 C17           -6.9140     0.3817     0.5263 C.ar    
  18 C18           -7.7319     1.0228    -0.3872 C.ar    
  19 C19           -7.2253     2.0264    -1.1938 C.ar    
  20 C20           -5.9013     2.3989    -1.0872 C.ar    
  21 C21           -2.7844    -0.2075    -0.2229 C.3     
  22 N22           -3.0499    -0.8014     1.0943 N.3     
  23 N23           -0.3768     4.1623     0.3142 N.pl3   
  24 C24           -3.5889    -2.1670     0.9592 C.3     
  25 C25           -2.6538    -3.1077     1.7479 C.3     
  26 C26           -1.9614    -2.1501     2.7530 C.3     
  27 C27           -1.8164    -0.8604     1.9072 C.3     
  28 H28            2.3561     0.0661    -0.2865 H       
  29 H29            3.4316    -0.5266    -2.4168 H       
  30 H30            0.0586     0.9775    -4.5584 H       
  31 H31           -1.0384     1.5656    -2.4377 H       
  32 H32           -4.9492     0.2386     1.3520 H       
  33 H33           -7.3156    -0.4014     1.1524 H       
  34 H34           -8.7704     0.7384    -0.4713 H       
  35 H35           -7.8689     2.5224    -1.9052 H       
  36 H36           -5.5083     3.1859    -1.7137 H       
  37 H37           -3.6193    -0.4180    -0.8913 H       
  38 H38           -1.8710    -0.6349    -0.6367 H       
  39 H39            0.5210     3.8075     0.4095 H       
  40 H40           -0.5223     5.1213     0.3193 H       
  41 H41           -4.5957    -2.2111     1.3747 H       
  42 H42           -3.6061    -2.4567    -0.0915 H       
  43 H43           -3.2285    -3.8695     2.2748 H       
  44 H44           -1.9203    -3.5667     1.0850 H       
  45 H45           -2.5921    -1.9764     3.6248 H       
  46 H46           -0.9854    -2.5343     3.0494 H       
  47 H47           -0.9399    -0.9259     1.2626 H       
  48 H48           -1.7471     0.0129     2.5557 H       
@<TRIPOS>BOND
   1    1    2 2
   2    1    3 1
   3    1   11 1
   4    3    4 ar
   5    3    8 ar
   6    4    5 ar
   7    4   28 1
   8    5    6 ar
   9    5   29 1
  10    6    7 ar
  11    6    9 1
  12    7    8 ar
  13    7   30 1
  14    8   31 1
  15   10   11 2
  16   10   14 1
  17   10   23 1
  18   11   12 1
  19   12   13 2
  20   12   21 1
  21   13   14 1
  22   13   15 1
  23   15   16 ar
  24   15   20 ar
  25   16   17 ar
  26   16   32 1
  27   17   18 ar
  28   17   33 1
  29   18   19 ar
  30   18   34 1
  31   19   20 ar
  32   19   35 1
  33   20   36 1
  34   21   22 1
  35   21   37 1
  36   21   38 1
  37   22   24 1
  38   22   27 1
  39   23   39 1
  40   23   40 1
  41   24   25 1
  42   24   41 1
  43   24   42 1
  44   25   26 1
  45   25   43 1
  46   25   44 1
  47   26   27 1
  48   26   45 1
  49   26   46 1
  50   27   47 1
  51   27   48 1

#	End of record

