#	Name: ASD01410670
#	Creating user name:	WinNT
#	Creation time:	15. 06. 2019 19:18

#	Modifying user name:	WinNT
#	Modification time:	15. 06. 2019 19:18

#	Program:	/corina/corina34_cracker 3.40 0067  02.08.2006

@<TRIPOS>MOLECULE
ASD01410670
  64   67    0    0    0
SMALL
NO_CHARGES


@<TRIPOS>ATOM
   1 C1             0.9485    -2.0931    -3.0675 C.ar    
   2 C2             1.0181    -2.6925    -1.8176 C.ar    
   3 C3             2.2295    -2.7370    -1.1561 C.ar    
   4 N4             3.3149    -2.2179    -1.6973 N.ar    
   5 C5             3.2886    -1.6384    -2.8863 C.ar    
   6 C6             2.1048    -1.5581    -3.6084 C.ar    
   7 O7             4.4287    -1.1171    -3.4050 O.3     
   8 C8             5.5477    -1.1345    -2.6328 C.ar    
   9 C9             6.2013    -2.3363    -2.3875 C.ar    
  10 C10            7.3375    -2.3655    -1.6048 C.ar    
  11 C11            7.8361    -1.1919    -1.0560 C.ar    
  12 C12            7.1810     0.0250    -1.3003 C.ar    
  13 C13            6.0347     0.0445    -2.0987 C.ar    
  14 N14            8.9826    -1.2220    -0.2652 N.am    
  15 C15           10.1920    -1.3847    -0.8375 C.2     
  16 C16            8.8737    -1.0768     1.1886 C.3     
  17 O17           11.1799    -1.5223    -0.1423 O.2     
  18 C18           10.3170    -1.3959    -2.3082 C.ar    
  19 C19            9.3706    -0.7383    -3.0980 C.ar    
  20 C20            9.4931    -0.7519    -4.4706 C.ar    
  21 C21           10.5515    -1.4161    -5.0697 C.ar    
  22 C22           11.4934    -2.0700    -4.2960 C.ar    
  23 C23           11.3867    -2.0600    -2.9175 C.ar    
  24 Br24          10.7087    -1.4292    -6.9541 Br      
  25 C25            9.8731    -0.0241     1.6722 C.3     
  26 C26            9.1804    -2.4173     1.8593 C.3     
  27 C27           -0.2152    -3.2881    -1.1889 C.3     
  28 O28            8.1100    -3.3306     1.6099 O.3     
  29 N29           -0.3337    -4.6942    -1.5826 N.pl3   
  30 N30            0.1759    -5.6802    -0.9331 N.2     
  31 C31           -0.1197    -6.7961    -1.5604 C.2     
  32 C32           -0.8703    -6.4202    -2.6768 C.2     
  33 N33           -0.9662    -5.1110    -2.6218 N.2     
  34 C34            8.2978    -4.6203     2.1960 C.3     
  35 F35           12.3067    -2.6986    -2.1618 F       
  36 C36            2.0797    -0.8975    -4.9626 C.3     
  37 F37            0.7809    -0.9445    -5.4804 F       
  38 F38            2.4843     0.4360    -4.8385 F       
  39 F39            2.9506    -1.5706    -5.8261 F       
  40 C40            7.7022     1.2763    -0.7217 C.2     
  41 O41            8.7730     1.2802    -0.1472 O.2     
  42 O42            6.9915     2.4160    -0.8299 O.3     
  43 H43            0.0143    -2.0490    -3.6076 H       
  44 H44            2.2891    -3.2024    -0.1833 H       
  45 H45            5.8177    -3.2525    -2.8116 H       
  46 H46            7.8396    -3.3033    -1.4185 H       
  47 H47            5.5251     0.9770    -2.2912 H       
  48 H48            7.8623    -0.7638     1.4477 H       
  49 H49            8.5444    -0.2205    -2.6338 H       
  50 H50            8.7616    -0.2436    -5.0813 H       
  51 H51           12.3157    -2.5861    -4.7693 H       
  52 H52            9.4307     0.9675     1.5774 H       
  53 H53           10.1223    -0.2124     2.7165 H       
  54 H54           10.7783    -0.0775     1.0674 H       
  55 H55           10.1067    -2.8235     1.4530 H       
  56 H56            9.2889    -2.2695     2.9338 H       
  57 H57           -0.1389    -3.2198    -0.1037 H       
  58 H58           -1.0955    -2.7408    -1.5263 H       
  59 H59            0.1606    -7.7984    -1.2722 H       
  60 H60           -1.2897    -7.0724    -3.4285 H       
  61 H61            9.2058    -5.0721     1.7967 H       
  62 H62            8.3881    -4.5182     3.2775 H       
  63 H63            7.4429    -5.2542     1.9610 H       
  64 H64            7.3742     3.2113    -0.4347 H       
@<TRIPOS>BOND
   1    1    2 ar
   2    1    6 ar
   3    1   43 1
   4    2    3 ar
   5    2   27 1
   6    3    4 ar
   7    3   44 1
   8    4    5 ar
   9    5    6 ar
  10    5    7 1
  11    6   36 1
  12    7    8 1
  13    8    9 ar
  14    8   13 ar
  15    9   10 ar
  16    9   45 1
  17   10   11 ar
  18   10   46 1
  19   11   12 ar
  20   11   14 1
  21   12   13 ar
  22   12   40 1
  23   13   47 1
  24   14   15 am
  25   14   16 1
  26   15   17 2
  27   15   18 1
  28   16   25 1
  29   16   26 1
  30   16   48 1
  31   18   19 ar
  32   18   23 ar
  33   19   20 ar
  34   19   49 1
  35   20   21 ar
  36   20   50 1
  37   21   22 ar
  38   21   24 1
  39   22   23 ar
  40   22   51 1
  41   23   35 1
  42   25   52 1
  43   25   53 1
  44   25   54 1
  45   26   28 1
  46   26   55 1
  47   26   56 1
  48   27   29 1
  49   27   57 1
  50   27   58 1
  51   28   34 1
  52   29   30 1
  53   29   33 1
  54   30   31 2
  55   31   32 1
  56   31   59 1
  57   32   33 2
  58   32   60 1
  59   34   61 1
  60   34   62 1
  61   34   63 1
  62   36   37 1
  63   36   38 1
  64   36   39 1
  65   40   41 2
  66   40   42 1
  67   42   64 1

#	End of record

