#	Name: ASD02398083
#	Creating user name:	WinNT
#	Creation time:	15. 06. 2019 20:20

#	Modifying user name:	WinNT
#	Modification time:	15. 06. 2019 20:20

#	Program:	/corina/corina34_cracker 3.40 0067  02.08.2006

@<TRIPOS>MOLECULE
ASD02398083
  61   63    0    0    0
SMALL
NO_CHARGES


@<TRIPOS>ATOM
   1 F1            -0.6641    -4.3596    -0.1594 F       
   2 C2            -0.0167     1.3833     0.0096 C.ar    
   3 C3             0.0021    -0.0041     0.0020 C.ar    
   4 C4            -1.1853    -0.7097     0.0095 C.ar    
   5 C5            -2.3921    -0.0347     0.0242 C.ar    
   6 C6            -2.4135     1.3476     0.0318 C.ar    
   7 C7            -1.2285     2.0581     0.0306 C.ar    
   8 C8             1.3169    -0.7404    -0.0149 C.3     
   9 C9             1.4198    -1.6238     1.2277 C.3     
  10 C10            0.4538    -2.7740     1.1207 C.2     
  11 C11            0.2008    -3.3262    -0.0637 C.2     
  12 C12            0.8682    -2.8061    -1.2696 C.2     
  13 C13            1.3988    -1.5887    -1.2562 C.2     
  14 C14            2.0847    -1.0546    -2.4872 C.3     
  15 O15            2.0323    -2.0516    -3.5415 O.3     
  16 C16           -3.6860    -0.8071     0.0313 C.3     
  17 C17           -4.1047    -1.0727     1.4544 C.2     
  18 O18           -3.4223    -0.6755     2.3690 O.2     
  19 O19           -5.2356    -1.7505     1.7060 O.3     
  20 C20            2.6046    -1.7292    -4.7167 C.2     
  21 N21            2.5909    -2.6097    -5.7370 N.am    
  22 O22            3.1335    -0.6443    -4.8575 O.2     
  23 C23            1.9533    -3.9177    -5.5672 C.3     
  24 C24            0.4795    -3.8223    -5.9667 C.3     
  25 C25            3.2137    -2.2589    -7.0158 C.3     
  26 C26            4.6603    -2.6810    -7.0026 C.ar    
  27 C27            5.0159    -3.9433    -7.4397 C.ar    
  28 C28            6.3429    -4.3306    -7.4275 C.ar    
  29 C29            7.3142    -3.4554    -6.9787 C.ar    
  30 C30            6.9587    -2.1928    -6.5425 C.ar    
  31 C31            5.6322    -1.8040    -6.5587 C.ar    
  32 O32            1.1501     2.0799     0.0022 O.3     
  33 C33            1.0546     3.5057     0.0108 C.3     
  34 H34           -1.1711    -1.7896     0.0036 H       
  35 H35           -3.3573     1.8725     0.0432 H       
  36 H36           -1.2458     3.1379     0.0366 H       
  37 H37            2.1350    -0.0201    -0.0158 H       
  38 H38            2.4352    -2.0106     1.3138 H       
  39 H39            1.1826    -1.0331     2.1125 H       
  40 H40           -0.0350    -3.1515     2.0067 H       
  41 H41            0.9254    -3.4124    -2.1615 H       
  42 H42            1.5801    -0.1474    -2.8196 H       
  43 H43            3.1248    -0.8270    -2.2537 H       
  44 H44           -4.4587    -0.2262    -0.4723 H       
  45 H45           -3.5465    -1.7546    -0.4892 H       
  46 H46           -5.4627    -1.8964     2.6345 H       
  47 H47            2.4543    -4.6509    -6.1993 H       
  48 H48            2.0279    -4.2256    -4.5243 H       
  49 H49           -0.0215    -3.0891    -5.3346 H       
  50 H50            0.4049    -3.5143    -7.0096 H       
  51 H51            0.0050    -4.7955    -5.8404 H       
  52 H52            2.6934    -2.7701    -7.8257 H       
  53 H53            3.1511    -1.1812    -7.1668 H       
  54 H54            4.2570    -4.6271    -7.7903 H       
  55 H55            6.6206    -5.3170    -7.7683 H       
  56 H56            8.3509    -3.7582    -6.9686 H       
  57 H57            7.7176    -1.5091    -6.1915 H       
  58 H58            5.3549    -0.8162    -6.2213 H       
  59 H59            2.0556     3.9369     0.0036 H       
  60 H60            0.5092     3.8386    -0.8722 H       
  61 H61            0.5262     3.8290     0.9076 H       
@<TRIPOS>BOND
   1    1   11 1
   2    2    3 ar
   3    2   32 1
   4    2    7 ar
   5    3    4 ar
   6    3    8 1
   7    4    5 ar
   8    4   34 1
   9    5    6 ar
  10    5   16 1
  11    6    7 ar
  12    6   35 1
  13    7   36 1
  14    8    9 1
  15    8   13 1
  16    8   37 1
  17    9   10 1
  18    9   38 1
  19    9   39 1
  20   10   11 2
  21   10   40 1
  22   11   12 1
  23   12   13 2
  24   12   41 1
  25   13   14 1
  26   14   15 1
  27   14   42 1
  28   14   43 1
  29   15   20 1
  30   16   17 1
  31   16   44 1
  32   16   45 1
  33   17   18 2
  34   17   19 1
  35   19   46 1
  36   20   21 am
  37   20   22 2
  38   21   23 1
  39   21   25 1
  40   23   24 1
  41   23   47 1
  42   23   48 1
  43   24   49 1
  44   24   50 1
  45   24   51 1
  46   25   26 1
  47   25   52 1
  48   25   53 1
  49   26   27 ar
  50   26   31 ar
  51   27   28 ar
  52   27   54 1
  53   28   29 ar
  54   28   55 1
  55   29   30 ar
  56   29   56 1
  57   30   31 ar
  58   30   57 1
  59   31   58 1
  60   32   33 1
  61   33   59 1
  62   33   60 1
  63   33   61 1

#	End of record

