#	Name: ASD03093011
#	Creating user name:	WinNT
#	Creation time:	15. 06. 2019 20:33

#	Modifying user name:	WinNT
#	Modification time:	15. 06. 2019 20:33

#	Program:	/corina/corina34_cracker 3.40 0067  02.08.2006

@<TRIPOS>MOLECULE
ASD03093011
  51   55    0    0    0
SMALL
NO_CHARGES


@<TRIPOS>ATOM
   1 C1            -1.1882     2.1518     0.1258 C.3     
   2 N2            -0.8120     0.7359     0.1233 N.am    
   3 C3            -1.6745    -0.1913     0.5846 C.2     
   4 C4            -1.2875    -1.6478     0.5820 C.3     
   5 O5            -2.7620     0.1464     1.0018 O.2     
   6 N6            -2.3875    -2.4463     1.1284 N.am    
   7 N7            -2.4289    -2.6935     2.5008 N.2     
   8 C8            -3.3794    -3.3976     3.0602 C.2     
   9 C9            -4.4560    -3.9603     2.2324 C.ar    
  10 C10           -4.4326    -3.7214     0.8402 C.ar    
  11 C11           -3.3343    -2.9169     0.2911 C.2     
  12 C12           -3.3704    -3.6275     4.5239 C.ar    
  13 C13           -5.4883    -4.7164     2.7837 C.ar    
  14 C14           -6.4740    -5.2215     1.9594 C.ar    
  15 C15           -6.4444    -4.9826     0.5891 C.ar    
  16 C16           -5.4408    -4.2427     0.0296 C.ar    
  17 O17           -3.2742    -2.6855    -0.9033 O.2     
  18 F18           -7.4772    -5.9553     2.4887 F       
  19 C19            0.0646     3.0523     0.1685 C.3     
  20 C20           -0.2851     4.2579    -0.6773 C.ar    
  21 C21           -1.3774     3.9691    -1.4735 C.ar    
  22 C22           -1.8365     2.5497    -1.2172 C.3     
  23 C23            0.3060     5.5086    -0.7453 C.ar    
  24 C24           -0.1927     6.4672    -1.6052 C.ar    
  25 C25           -1.2853     6.1783    -2.4016 C.ar    
  26 C26           -1.8758     4.9317    -2.3356 C.ar    
  27 C27           -3.7135    -4.8776     5.0380 C.ar    
  28 C28           -3.7030    -5.0864     6.4017 C.ar    
  29 C29           -3.3525    -4.0575     7.2594 C.ar    
  30 C30           -3.0110    -2.8144     6.7543 C.ar    
  31 C31           -3.0131    -2.5963     5.3920 C.ar    
  32 Cl32          -3.3419    -4.3269     8.9744 Cl      
  33 H33           -1.8529     2.3729     0.9610 H       
  34 H34            0.0578     0.4658    -0.2104 H       
  35 H35           -1.0795    -1.9666    -0.4394 H       
  36 H36           -0.3972    -1.7883     1.1948 H       
  37 H37           -5.5169    -4.9062     3.8465 H       
  38 H38           -7.2239    -5.3865    -0.0399 H       
  39 H39           -5.4277    -4.0635    -1.0354 H       
  40 H40            0.2761     3.3577     1.1932 H       
  41 H41            0.9214     2.5286    -0.2554 H       
  42 H42           -1.4910     1.8908    -2.0138 H       
  43 H43           -2.9230     2.5119    -1.1386 H       
  44 H44            1.1595     5.7350    -0.1235 H       
  45 H45            0.2701     7.4417    -1.6553 H       
  46 H46           -1.6767     6.9269    -3.0745 H       
  47 H47           -2.7293     4.7068    -2.9580 H       
  48 H48           -3.9873    -5.6807     4.3699 H       
  49 H49           -3.9689    -6.0540     6.8009 H       
  50 H50           -2.7388    -2.0152     7.4277 H       
  51 H51           -2.7465    -1.6263     4.9990 H       
@<TRIPOS>BOND
   1    1    2 1
   2    1   19 1
   3    1   22 1
   4    1   33 1
   5    2    3 am
   6    2   34 1
   7    3    4 1
   8    3    5 2
   9    4    6 1
  10    4   35 1
  11    4   36 1
  12    6    7 1
  13    6   11 am
  14    7    8 2
  15    8    9 1
  16    8   12 1
  17    9   10 ar
  18    9   13 ar
  19   10   11 1
  20   10   16 ar
  21   11   17 2
  22   12   27 ar
  23   12   31 ar
  24   13   14 ar
  25   13   37 1
  26   14   15 ar
  27   14   18 1
  28   15   16 ar
  29   15   38 1
  30   16   39 1
  31   19   20 1
  32   19   40 1
  33   19   41 1
  34   20   21 ar
  35   20   23 ar
  36   21   22 1
  37   21   26 ar
  38   22   42 1
  39   22   43 1
  40   23   24 ar
  41   23   44 1
  42   24   25 ar
  43   24   45 1
  44   25   26 ar
  45   25   46 1
  46   26   47 1
  47   27   28 ar
  48   27   48 1
  49   28   29 ar
  50   28   49 1
  51   29   30 ar
  52   29   32 1
  53   30   31 ar
  54   30   50 1
  55   31   51 1

#	End of record

