#	Name: ASD01885754
#	Creating user name:	WinNT
#	Creation time:	15. 06. 2019 19:50

#	Modifying user name:	WinNT
#	Modification time:	15. 06. 2019 19:50

#	Program:	/corina/corina34_cracker 3.40 0067  02.08.2006

@<TRIPOS>MOLECULE
ASD01885754
  58   60    0    0    0
SMALL
NO_CHARGES


@<TRIPOS>ATOM
   1 C1            -0.0160     1.3293     0.0094 C.ar    
   2 C2            -1.2535     2.0213     0.0189 C.ar    
   3 C3            -2.4927     1.2416     0.0204 C.ar    
   4 C4            -2.3731    -0.1479     0.0122 C.ar    
   5 C5            -1.1023    -0.7260     0.0032 C.ar    
   6 N6             0.0021    -0.0041     0.0020 N.ar    
   7 C7             1.1280     3.4326     0.0098 C.ar    
   8 C8            -0.0906     4.1064     0.0258 C.ar    
   9 C9            -1.2691     3.4193     0.0271 C.ar    
  10 C10           -3.8105     1.8972     0.0306 C.2     
  11 C11           -0.9897    -2.2045    -0.0054 C.2     
  12 C12            2.4115     4.2223     0.0093 C.3     
  13 N13            2.8384     4.4638     1.3940 N.3     
  14 C14            1.1791     2.0722     0.0019 C.ar    
  15 N15            0.2253    -2.7877    -0.0141 N.am    
  16 O16           -1.9927    -2.8901    -0.0045 O.2     
  17 C17            4.1985     5.0201     1.4366 C.3     
  18 C18            4.5796     5.3115     2.8905 C.3     
  19 O19            4.4614     4.1110     3.6588 O.3     
  20 C20            3.1493     3.5423     3.6399 C.3     
  21 C21            2.7538     3.2330     2.1936 C.3     
  22 C22           -4.8425     1.6237    -0.8003 C.2     
  23 N23           -5.9153     2.3509    -0.5857 N.2     
  24 C24           -5.8574     3.2230     0.3741 C.2     
  25 S25           -4.3261     3.1721     1.1320 S.3     
  26 C26            6.0230     5.8155     2.9492 C.3     
  27 F27            6.1389     6.9871     2.1934 F       
  28 F28            6.3704     6.0815     4.2780 F       
  29 F29            6.8795     4.8389     2.4298 F       
  30 O30           -6.8684     4.0511     0.7284 O.3     
  31 C31           -8.0835     3.9472    -0.0165 C.3     
  32 H32           -3.2553    -0.7709     0.0133 H       
  33 H33           -0.1029     5.1862     0.0378 H       
  34 H34           -2.2085     3.9521     0.0341 H       
  35 H35            3.1837     3.6604    -0.5162 H       
  36 H36            2.2510     5.1763    -0.4930 H       
  37 H37            2.1327     1.5654    -0.0096 H       
  38 H38            1.0261    -2.2403    -0.0148 H       
  39 H39            0.2990    -3.7549    -0.0197 H       
  40 H40            4.8996     4.3005     1.0138 H       
  41 H41            4.2320     5.9441     0.8594 H       
  42 H42            3.9114     6.0709     3.2967 H       
  43 H43            3.1432     2.6218     4.2237 H       
  44 H44            2.4396     4.2502     4.0679 H       
  45 H45            1.7326     2.8525     2.1690 H       
  46 H46            3.4317     2.4848     1.7829 H       
  47 H47           -4.7889     0.8720    -1.5740 H       
  48 H48           -7.8850     4.1601    -1.0670 H       
  49 H49           -8.4839     2.9381     0.0803 H       
  50 H50           -8.8083     4.6643     0.3688 H       
  51 C51           12.8813    13.8942    10.1832 C.3     
  52 C52           12.9021    12.3644    10.1748 C.3     
  53 H53           13.9039    14.2715    10.1755 H       
  54 H54           12.3541    14.2553     9.3001 H       
  55 H55           12.3711    14.2457    11.0800 H       
  56 H56           13.4293    12.0033    11.0578 H       
  57 H57           11.8795    11.9871    10.1825 H       
  58 H58           13.4123    12.0129     9.2780 H       
@<TRIPOS>BOND
   1    1    6 ar
   2    1   14 ar
   3    1    2 ar
   4    2    3 ar
   5    2    9 ar
   6    3   10 1
   7    3    4 ar
   8    4    5 ar
   9    4   32 1
  10    5   11 1
  11    5    6 ar
  12    7   12 1
  13    7    8 ar
  14    7   14 ar
  15    8    9 ar
  16    8   33 1
  17    9   34 1
  18   10   25 1
  19   10   22 2
  20   11   15 am
  21   11   16 2
  22   12   13 1
  23   12   35 1
  24   12   36 1
  25   13   17 1
  26   13   21 1
  27   14   37 1
  28   15   38 1
  29   15   39 1
  30   17   18 1
  31   17   40 1
  32   17   41 1
  33   18   19 1
  34   18   26 1
  35   18   42 1
  36   19   20 1
  37   20   21 1
  38   20   43 1
  39   20   44 1
  40   21   45 1
  41   21   46 1
  42   22   23 1
  43   22   47 1
  44   23   24 2
  45   24   30 1
  46   24   25 1
  47   26   27 1
  48   26   28 1
  49   26   29 1
  50   30   31 1
  51   31   48 1
  52   31   49 1
  53   31   50 1
  54   51   52 1
  55   51   53 1
  56   51   54 1
  57   51   55 1
  58   52   56 1
  59   52   57 1
  60   52   58 1

#	End of record

