#	Name: ASD00842495
#	Creating user name:	WinNT
#	Creation time:	15. 06. 2019 18:44

#	Modifying user name:	WinNT
#	Modification time:	15. 06. 2019 18:44

#	Program:	/corina/corina34_cracker 3.40 0067  02.08.2006

@<TRIPOS>MOLECULE
ASD00842495
  87   92    0    0    0
SMALL
NO_CHARGES


@<TRIPOS>ATOM
   1 C1            -0.0167     1.3829     0.0096 C.ar    
   2 C2             0.0021    -0.0041     0.0020 C.ar    
   3 C3             1.2143    -0.6791    -0.0132 C.ar    
   4 C4             2.3989     0.0312    -0.0207 C.ar    
   5 C5             2.3774     1.4139    -0.0126 C.ar    
   6 C6             1.1710     2.0888     0.0021 C.ar    
   7 C7             1.2384    -2.1858    -0.0210 C.3     
   8 C8             0.4954    -2.7222    -1.2260 C.2     
   9 O9             2.6066    -2.6718    -0.0089 O.3     
  10 C10            3.3986    -2.2936    -1.0299 C.2     
  11 N11            4.6795    -2.7098    -1.0791 N.am    
  12 O12            2.9584    -1.5772    -1.9071 O.2     
  13 C13            5.5617    -2.3085    -2.1854 C.3     
  14 C14            6.8552    -1.7378    -1.5941 C.3     
  15 N15            7.4344    -2.7122    -0.6599 N.3     
  16 C16            6.5387    -2.9566     0.4785 C.3     
  17 C17            5.2340    -3.5723    -0.0246 C.3     
  18 N18            8.7476    -2.2827    -0.2068 N.3     
  19 C19            9.3271    -3.2576     0.7279 C.3     
  20 C20           10.7376    -2.8098     1.1183 C.3     
  21 N21           10.6736    -1.4741     1.7276 N.3     
  22 C22           10.0941    -0.4992     0.7930 C.3     
  23 C23            8.6836    -0.9470     0.4026 C.3     
  24 H24           10.1565    -1.4961     2.5938 H       
  25 O25            0.7747    -2.5266    -2.3899 O.2     
  26 N26           -0.5308    -3.4561    -0.7646 N.am    
  27 C27            0.4677    -2.7343     1.1584 C.ar    
  28 C28           -0.5778    -3.4853     0.6264 C.ar    
  29 C29            0.6314    -2.6120     2.5149 C.ar    
  30 C30           -0.2617    -3.2488     3.3840 C.ar    
  31 C31           -1.3150    -4.0053     2.8564 C.ar    
  32 C32           -1.4681    -4.1216     1.4914 C.ar    
  33 F33           -2.1826    -4.6239     3.6870 F       
  34 C34           -0.9796    -5.8517    -2.0429 C.ar    
  35 C35            0.2002    -6.0085    -2.7561 C.ar    
  36 C36           -1.6521    -6.9604    -1.5650 C.ar    
  37 C37           -1.1514    -8.2272    -1.7955 C.ar    
  38 C38            0.0284    -8.3893    -2.5084 C.ar    
  39 C39            0.7045    -7.2789    -2.9891 C.ar    
  40 O40            0.5202    -9.6358    -2.7352 O.3     
  41 O41            0.8607    -4.9178    -3.2262 O.3     
  42 C42            2.0689    -5.1539    -3.9519 C.3     
  43 C43           -0.2289   -10.7340    -2.2109 C.3     
  44 O44           -1.1648    -0.7006     0.0099 O.3     
  45 C45           -3.5740    -0.8895     0.0328 C.3     
  46 C46           -2.3744     0.0601     0.0260 C.3     
  47 S47           -1.6173    -4.2372    -1.7401 S.o2    
  48 O48           -2.7976    -4.4103    -0.9681 O.2     
  49 O49           -1.5974    -3.5574    -2.9878 O.2     
  50 C50           -0.0993    -3.1278     4.8016 C.1     
  51 N51            0.0296    -3.0319     5.9262 N.1     
  52 H52           -0.9590     1.9106     0.0170 H       
  53 H53            3.3426    -0.4937    -0.0325 H       
  54 H54            3.3047     1.9675    -0.0178 H       
  55 H55            1.1569     3.1687     0.0084 H       
  56 H56            5.7931    -3.1766    -2.8026 H       
  57 H57            5.0682    -1.5472    -2.7896 H       
  58 H58            7.5647    -1.5374    -2.3969 H       
  59 H59            6.6348    -0.8116    -1.0633 H       
  60 H60            7.0187    -3.6402     1.1788 H       
  61 H61            6.3227    -2.0135     0.9804 H       
  62 H62            4.5240    -3.6492     0.7988 H       
  63 H63            5.4310    -4.5624    -0.4357 H       
  64 H64            8.7050    -3.3195     1.6207 H       
  65 H65            9.3754    -4.2358     0.2494 H       
  66 H66           11.1583    -3.5162     1.8339 H       
  67 H67           11.3670    -2.7741     0.2291 H       
  68 H68           10.0457     0.4790     1.2715 H       
  69 H69           10.7162    -0.4373    -0.0999 H       
  70 H70            8.2628    -0.2406    -0.3130 H       
  71 H71            8.0542    -0.9827     1.2918 H       
  72 H72            1.4477    -2.0262     2.9111 H       
  73 H73           -2.2823    -4.7066     1.0898 H       
  74 H74           -2.5702    -6.8363    -1.0101 H       
  75 H75           -1.6783    -9.0921    -1.4204 H       
  76 H76            1.6225    -7.4030    -3.5443 H       
  77 H77            2.4940    -4.2018    -4.2695 H       
  78 H78            2.7813    -5.6745    -3.3120 H       
  79 H79            1.8529    -5.7656    -4.8279 H       
  80 H80           -0.3011   -10.6403    -1.1274 H       
  81 H81           -1.2295   -10.7307    -2.6433 H       
  82 H82            0.2725   -11.6687    -2.4622 H       
  83 H83           -4.4966    -0.3093     0.0451 H       
  84 H84           -3.5489    -1.5131    -0.8609 H       
  85 H85           -3.5312    -1.5227     0.9190 H       
  86 H86           -2.3995     0.6837     0.9196 H       
  87 H87           -2.4172     0.6932    -0.8603 H       
@<TRIPOS>BOND
   1    1    2 ar
   2    1    6 ar
   3    1   52 1
   4    2    3 ar
   5    2   44 1
   6    3    4 ar
   7    3    7 1
   8    4    5 ar
   9    4   53 1
  10    5    6 ar
  11    5   54 1
  12    6   55 1
  13    7    8 1
  14    7    9 1
  15    7   27 1
  16    8   25 2
  17    8   26 am
  18    9   10 1
  19   10   11 am
  20   10   12 2
  21   11   13 1
  22   11   17 1
  23   13   14 1
  24   13   56 1
  25   13   57 1
  26   14   15 1
  27   14   58 1
  28   14   59 1
  29   15   16 1
  30   15   18 1
  31   16   17 1
  32   16   60 1
  33   16   61 1
  34   17   62 1
  35   17   63 1
  36   18   19 1
  37   18   23 1
  38   19   20 1
  39   19   64 1
  40   19   65 1
  41   20   21 1
  42   20   66 1
  43   20   67 1
  44   21   22 1
  45   21   24 1
  46   22   23 1
  47   22   68 1
  48   22   69 1
  49   23   70 1
  50   23   71 1
  51   26   47 am
  52   26   28 1
  53   27   28 ar
  54   27   29 ar
  55   28   32 ar
  56   29   30 ar
  57   29   72 1
  58   30   31 ar
  59   30   50 1
  60   31   32 ar
  61   31   33 1
  62   32   73 1
  63   34   35 ar
  64   34   36 ar
  65   34   47 1
  66   35   41 1
  67   35   39 ar
  68   36   37 ar
  69   36   74 1
  70   37   38 ar
  71   37   75 1
  72   38   39 ar
  73   38   40 1
  74   39   76 1
  75   40   43 1
  76   41   42 1
  77   42   77 1
  78   42   78 1
  79   42   79 1
  80   43   80 1
  81   43   81 1
  82   43   82 1
  83   44   46 1
  84   45   46 1
  85   45   83 1
  86   45   84 1
  87   45   85 1
  88   46   86 1
  89   46   87 1
  90   47   48 2
  91   47   49 2
  92   50   51 3

#	End of record

