#	Name: ASD03091250
#	Creating user name:	WinNT
#	Creation time:	15. 06. 2019 20:30

#	Modifying user name:	WinNT
#	Modification time:	15. 06. 2019 20:30

#	Program:	/corina/corina34_cracker 3.40 0067  02.08.2006

@<TRIPOS>MOLECULE
ASD03091250
  68   73    0    0    0
SMALL
NO_CHARGES


@<TRIPOS>ATOM
   1 N1             0.6892     1.4447    -0.1311 N.2     
   2 C2             0.4496     0.1602    -0.0793 C.2     
   3 N3             1.4338    -0.7773     0.0826 N.am    
   4 C4             2.7280    -0.3985     0.1985 C.2     
   5 C5             3.0210     1.0415     0.1425 C.ar    
   6 C6             4.3206     1.5307     0.2518 C.ar    
   7 C7             4.5391     2.8968     0.1918 C.ar    
   8 C8             3.4693     3.7763     0.0237 C.ar    
   9 C9             2.1903     3.3116    -0.0848 C.ar    
  10 C10            1.9403     1.9370    -0.0272 C.ar    
  11 O11            3.6157    -1.2186     0.3438 O.2     
  12 C12           -0.9494    -0.3009    -0.2009 C.ar    
  13 C13           -1.4939    -1.1506     0.7637 C.ar    
  14 C14           -3.5707    -1.1644    -0.4285 C.ar    
  15 C15           -1.7337     0.1159    -1.2775 C.ar    
  16 C16           -2.8003    -1.5769     0.6445 C.ar    
  17 C17           -3.0391    -0.3179    -1.3848 C.ar    
  18 C18           -3.3898    -2.4941     1.6848 C.3     
  19 C19            1.0841    -2.1991     0.1314 C.3     
  20 C20            0.9574    -2.7423    -1.2933 C.3     
  21 C21            0.7445    -4.2640    -1.3558 C.3     
  22 C22           -0.2574    -3.9982    -2.4917 C.3     
  23 C23           -0.4554    -2.5996    -1.8836 C.3     
  24 C24            2.0650    -2.2398    -2.2215 C.3     
  25 O25            2.1630    -0.8178    -2.1199 O.3     
  26 N26            8.7397     3.5873    -0.2658 N.3     
  27 C27            8.1902     2.8421     0.8771 C.3     
  28 C28            6.7992     2.3173     0.5575 C.3     
  29 N29            5.8392     3.3976     0.3009 N.3     
  30 C30            6.2164     4.1504    -0.9035 C.3     
  31 C31            7.0491     5.3675    -0.5297 C.3     
  32 C32            8.4636     5.0226    -0.1094 C.3     
  33 C33            8.3976     3.0877    -1.5802 C.3     
  34 C34            6.9125     3.2165    -1.8766 C.3     
  35 H35            5.1498     0.8512     0.3823 H       
  36 H36            3.6555     4.8392    -0.0208 H       
  37 H37            1.3724     4.0049    -0.2142 H       
  38 H38           -0.8935    -1.4738     1.6012 H       
  39 H39           -4.5930    -1.5013    -0.5173 H       
  40 H40           -1.3199     0.7768    -2.0248 H       
  41 H41           -3.6457     0.0003    -2.2198 H       
  42 H42           -3.8472    -1.8999     2.4758 H       
  43 H43           -4.1464    -3.1284     1.2230 H       
  44 H44           -2.6020    -3.1175     2.1079 H       
  45 H45            1.8634    -2.7470     0.6611 H       
  46 H46            0.1349    -2.3222     0.6529 H       
  47 H47            1.6290    -4.8159    -1.6740 H       
  48 H48            0.2865    -4.6781    -0.4575 H       
  49 H49            0.1986    -3.9833    -3.4816 H       
  50 H50           -1.1478    -4.6250    -2.4441 H       
  51 H51           -1.2416    -2.5586    -1.1297 H       
  52 H52           -0.5398    -1.8078    -2.6279 H       
  53 H53            3.0141    -2.6909    -1.9320 H       
  54 H54            1.8304    -2.5153    -3.2496 H       
  55 H55            2.8469    -0.4294    -2.6825 H       
  56 H56            8.8465     2.0028     1.1075 H       
  57 H57            8.1349     3.5020     1.7429 H       
  58 H58            6.8566     1.6792    -0.3243 H       
  59 H59            6.4444     1.7222     1.3990 H       
  60 H60            5.3019     4.5001    -1.3826 H       
  61 H61            7.0933     6.0378    -1.3881 H       
  62 H62            6.5576     5.8883     0.2920 H       
  63 H63            8.6019     5.2998     0.9356 H       
  64 H64            9.1650     5.5887    -0.7223 H       
  65 H65            8.9574     3.6488    -2.3284 H       
  66 H66            8.6809     2.0371    -1.6438 H       
  67 H67            6.4517     2.2308    -1.8128 H       
  68 H68            6.7853     3.6005    -2.8888 H       
@<TRIPOS>BOND
   1    1    2 2
   2    1   10 1
   3    2    3 1
   4    2   12 1
   5    3    4 am
   6    3   19 1
   7    4    5 1
   8    4   11 2
   9    5    6 ar
  10    5   10 ar
  11    6    7 ar
  12    6   35 1
  13    7    8 ar
  14    7   29 1
  15    8    9 ar
  16    8   36 1
  17    9   10 ar
  18    9   37 1
  19   12   13 ar
  20   12   15 ar
  21   13   16 ar
  22   13   38 1
  23   14   16 ar
  24   14   17 ar
  25   14   39 1
  26   15   17 ar
  27   15   40 1
  28   16   18 1
  29   17   41 1
  30   18   42 1
  31   18   43 1
  32   18   44 1
  33   19   20 1
  34   19   45 1
  35   19   46 1
  36   20   21 1
  37   20   23 1
  38   20   24 1
  39   21   22 1
  40   21   47 1
  41   21   48 1
  42   22   23 1
  43   22   49 1
  44   22   50 1
  45   23   51 1
  46   23   52 1
  47   24   25 1
  48   24   53 1
  49   24   54 1
  50   25   55 1
  51   26   27 1
  52   26   32 1
  53   26   33 1
  54   27   28 1
  55   27   56 1
  56   27   57 1
  57   28   29 1
  58   28   58 1
  59   28   59 1
  60   29   30 1
  61   30   31 1
  62   30   34 1
  63   30   60 1
  64   31   32 1
  65   31   61 1
  66   31   62 1
  67   32   63 1
  68   32   64 1
  69   33   34 1
  70   33   65 1
  71   33   66 1
  72   34   67 1
  73   34   68 1

#	End of record

