#	Name: ASD01940312
#	Creating user name:	WinNT
#	Creation time:	15. 06. 2019 20:12

#	Modifying user name:	WinNT
#	Modification time:	15. 06. 2019 20:12

#	Program:	/corina/corina34_cracker 3.40 0067  02.08.2006

@<TRIPOS>MOLECULE
ASD01940312
  50   52    0    0    0
SMALL
NO_CHARGES


@<TRIPOS>ATOM
   1 C1            -0.3739     2.9714     1.0677 C.3     
   2 C2             0.7250     3.8787     1.6247 C.3     
   3 C3            -0.2424     3.1747     2.5784 C.3     
   4 S4            -1.7748     3.7673     0.2343 S.o2    
   5 O5            -2.6812     2.7909    -0.2599 O.2     
   6 O6            -2.2361     4.8805     0.9875 O.2     
   7 N7            -1.1169     4.4406    -1.1281 N.am    
   8 C8             0.0502     1.6164     0.4976 C.3     
   9 C9            -1.1943     0.7946     0.1561 C.3     
  10 C10           -0.7743    -0.6121    -0.2745 C.3     
  11 O11           -1.9251    -1.3423    -0.7042 O.3     
  12 O12           -2.0385     0.7086     1.3059 O.3     
  13 C13           -0.1632     5.4610    -1.0150 C.ar    
  14 C14           -0.5283     6.7043    -0.5001 C.ar    
  15 C15            0.4207     7.7114    -0.3898 C.ar    
  16 C16            1.7268     7.4783    -0.7914 C.ar    
  17 C17            2.0865     6.2434    -1.3025 C.ar    
  18 C18            1.1465     5.2344    -1.4094 C.ar    
  19 C19            1.5449     3.8895    -1.9604 C.3     
  20 N20           -1.8499     6.9368    -0.0954 N.pl3   
  21 C21           -2.1350     7.9716     0.8009 C.ar    
  22 C22           -1.6658     7.9097     2.1095 C.ar    
  23 C23           -1.9494     8.9350     2.9922 C.ar    
  24 C24           -2.6991    10.0208     2.5751 C.ar    
  25 C25           -3.1667    10.0841     1.2752 C.ar    
  26 C26           -2.8818     9.0657     0.3857 C.ar    
  27 I27           -3.1273    11.5722     3.9163 I       
  28 F28           -0.9347     6.8491     2.5167 F       
  29 F29            2.6503     8.4585    -0.6840 F       
  30 F30            0.0716     8.9178     0.1080 F       
  31 H31            1.7500     3.5103     1.5850 H       
  32 H32            0.6061     4.9538     1.4904 H       
  33 H33           -0.9976     3.7866     3.0715 H       
  34 H34            0.1463     2.3430     3.1661 H       
  35 H35           -1.3918     4.1286    -2.0045 H       
  36 H36            0.6423     1.7710    -0.4045 H       
  37 H37            0.6470     1.0820     1.2367 H       
  38 H38           -1.7363     1.2770    -0.6573 H       
  39 H39           -0.0605    -0.5428    -1.0954 H       
  40 H40           -0.3110    -1.1267     0.5673 H       
  41 H41           -1.7330    -2.2451    -0.9923 H       
  42 H42           -1.6205     0.2891     2.0703 H       
  43 H43            3.1050     6.0659    -1.6150 H       
  44 H44            1.4951     3.9136    -3.0490 H       
  45 H45            2.5628     3.6561    -1.6483 H       
  46 H46            0.8648     3.1261    -1.5824 H       
  47 H47           -2.5669     6.3799    -0.4371 H       
  48 H48           -1.5860     8.8884     4.0081 H       
  49 H49           -3.7521    10.9327     0.9535 H       
  50 H50           -3.2439     9.1186    -0.6304 H       
@<TRIPOS>BOND
   1    1    2 1
   2    1    3 1
   3    1    4 1
   4    1    8 1
   5    2    3 1
   6    2   31 1
   7    2   32 1
   8    3   33 1
   9    3   34 1
  10    4    5 2
  11    4    6 2
  12    4    7 am
  13    7   13 1
  14    7   35 1
  15    8    9 1
  16    8   36 1
  17    8   37 1
  18    9   10 1
  19    9   12 1
  20    9   38 1
  21   10   11 1
  22   10   39 1
  23   10   40 1
  24   11   41 1
  25   12   42 1
  26   13   14 ar
  27   13   18 ar
  28   14   15 ar
  29   14   20 1
  30   15   16 ar
  31   15   30 1
  32   16   17 ar
  33   16   29 1
  34   17   18 ar
  35   17   43 1
  36   18   19 1
  37   19   44 1
  38   19   45 1
  39   19   46 1
  40   20   21 1
  41   20   47 1
  42   21   22 ar
  43   21   26 ar
  44   22   23 ar
  45   22   28 1
  46   23   24 ar
  47   23   48 1
  48   24   25 ar
  49   24   27 1
  50   25   26 ar
  51   25   49 1
  52   26   50 1

#	End of record

