#	Name: ASD01913379
#	Creating user name:	WinNT
#	Creation time:	15. 06. 2019 20:01

#	Modifying user name:	WinNT
#	Modification time:	15. 06. 2019 20:01

#	Program:	/corina/corina34_cracker 3.40 0067  02.08.2006

@<TRIPOS>MOLECULE
ASD01913379
  37   40    0    0    0
SMALL
NO_CHARGES


@<TRIPOS>ATOM
   1 C1            -0.0167     1.3799     0.0096 C.2     
   2 C2             0.0021    -0.0041     0.0020 C.2     
   3 C3             1.2500    -0.6667    -0.0135 C.2     
   4 N4             2.3628     0.0270    -0.0204 N.2     
   5 C5             2.3470     1.3658    -0.0130 C.2     
   6 N6             1.1637     2.0491     0.0020 N.pl3   
   7 N7             3.3241     2.2673    -0.0168 N.2     
   8 C8             2.8050     3.4927    -0.0048 C.2     
   9 N9             1.4902     3.4119     0.0069 N.2     
  10 C10           -1.2201    -0.7503     0.0101 C.1     
  11 C11           -2.2221    -1.3620     0.0168 C.1     
  12 C12           -3.4443    -2.1082     0.0249 C.ar    
  13 C13           -3.4140    -3.5053     0.0172 C.ar    
  14 C14           -4.5951    -4.2173     0.0255 C.ar    
  15 C15           -5.8459    -2.1683     0.0548 C.ar    
  16 C16           -4.6729    -1.4429     0.0466 C.ar    
  17 C17           -5.8082    -3.5515     0.0412 C.ar    
  18 N18            3.5379     4.6763    -0.0046 N.3     
  19 C19            4.9863     4.4010    -0.0202 C.3     
  20 C20            5.5745     5.1172    -1.2541 C.3     
  21 C21            4.5271     6.2232    -1.5486 C.3     
  22 C22            3.2038     5.5065    -1.1814 C.3     
  23 H23           -0.9535     1.9172     0.0170 H       
  24 H24            1.2874    -1.7461    -0.0192 H       
  25 H25           -2.4680    -4.0261     0.0042 H       
  26 H26           -4.5733    -5.2970     0.0195 H       
  27 H27           -6.7963    -1.6555     0.0715 H       
  28 H28           -4.7039    -0.3634     0.0572 H       
  29 H29           -6.7299    -4.1143     0.0473 H       
  30 H30            5.4473     4.7886     0.8883 H       
  31 H31            5.1589     3.3275    -0.0973 H       
  32 H32            6.5437     5.5571    -1.0188 H       
  33 H33            5.6563     4.4299    -2.0961 H       
  34 H34            4.6892     7.0936    -0.9129 H       
  35 H35            4.5404     6.5030    -2.6020 H       
  36 H36            2.8710     4.8777    -2.0073 H       
  37 H37            2.4355     6.2361    -0.9254 H       
@<TRIPOS>BOND
   1    1    2 2
   2    1    6 1
   3    1   23 1
   4    2    3 1
   5    2   10 1
   6    3    4 2
   7    3   24 1
   8    4    5 1
   9    5    6 1
  10    5    7 2
  11    6    9 1
  12    7    8 1
  13    8    9 2
  14    8   18 1
  15   10   11 3
  16   11   12 1
  17   12   13 ar
  18   12   16 ar
  19   13   14 ar
  20   13   25 1
  21   14   17 ar
  22   14   26 1
  23   15   16 ar
  24   15   17 ar
  25   15   27 1
  26   16   28 1
  27   17   29 1
  28   18   19 1
  29   18   22 1
  30   19   20 1
  31   19   30 1
  32   19   31 1
  33   20   21 1
  34   20   32 1
  35   20   33 1
  36   21   22 1
  37   21   34 1
  38   21   35 1
  39   22   36 1
  40   22   37 1

#	End of record

