#	Name: ASD03730096
#	Creating user name:	WinNT
#	Creation time:	15. 06. 2019 20:43

#	Modifying user name:	WinNT
#	Modification time:	15. 06. 2019 20:43

#	Program:	/corina/corina34_cracker 3.40 0067  02.08.2006

@<TRIPOS>MOLECULE
ASD03730096
  49   54    0    0    0
SMALL
NO_CHARGES


@<TRIPOS>ATOM
   1 C1            -0.0465     1.4850     0.2240 C.2     
   2 C2            -0.0457    -0.0219     0.2059 C.3     
   3 O3             0.9869     2.0897     0.4176 O.2     
   4 N4            -1.1946     2.1607     0.0195 N.am    
   5 O5             5.7361     2.7526     3.4561 O.3     
   6 C6             7.0881     2.6734     3.9451 C.3     
   7 O7             7.1835     1.3372     4.4726 O.3     
   8 C8             6.2769     0.5995     3.7664 C.ar    
   9 C9             5.3866     1.4704     3.1424 C.ar    
  10 C10            6.1377    -0.7670     3.6020 C.ar    
  11 C11            5.1105    -1.2817     2.8168 C.ar    
  12 C12            4.2224    -0.4020     2.2053 C.ar    
  13 C13            4.3622     0.9611     2.3622 C.ar    
  14 O14            4.8096    -2.5772     2.5144 O.3     
  15 C15            3.2245    -1.2484     1.4611 C.3     
  16 C16            3.4511    -2.6513     2.0408 C.3     
  17 N17            1.3139    -0.5124     0.4451 N.am    
  18 C18            1.8137    -0.7780     1.6685 C.2     
  19 C19            3.4411    -1.2144    -0.0228 C.ar    
  20 C20            4.5084    -1.5240    -0.8358 C.ar    
  21 C21            4.3972    -1.3861    -2.2080 C.ar    
  22 C22            3.2119    -0.9361    -2.7607 C.ar    
  23 C23            2.1403    -0.6238    -1.9504 C.ar    
  24 C24            2.2432    -0.7599    -0.5682 C.ar    
  25 O25            1.2367    -0.6606     2.7289 O.2     
  26 C26           -1.2153     3.5556     0.1328 C.ar    
  27 C27           -0.1180     4.3029    -0.2744 C.ar    
  28 C28           -0.1412     5.6792    -0.1614 C.ar    
  29 C29           -1.2561     6.3134     0.3573 C.ar    
  30 C30           -2.3506     5.5711     0.7642 C.ar    
  31 C31           -2.3354     4.1951     0.6473 C.ar    
  32 Br32          -1.2839     8.1979     0.5111 Br      
  33 H33           -0.7090    -0.3950     0.9862 H       
  34 H34           -0.3932    -0.3738    -0.7654 H       
  35 H35           -2.0065     1.6803    -0.2063 H       
  36 H36            7.7987     2.8154     3.1308 H       
  37 H37            7.2543     3.4088     4.7323 H       
  38 H38            6.8309    -1.4389     4.0863 H       
  39 H39            3.6707     1.6331     1.8757 H       
  40 H40            3.3523    -3.4111     1.2655 H       
  41 H41            2.7640    -2.8454     2.8644 H       
  42 H42            5.4331    -1.8750    -0.4020 H       
  43 H43            5.2339    -1.6297    -2.8460 H       
  44 H44            3.1252    -0.8284    -3.8318 H       
  45 H45            1.2182    -0.2725    -2.3894 H       
  46 H46            0.7528     3.8084    -0.6787 H       
  47 H47            0.7120     6.2609    -0.4779 H       
  48 H48           -3.2193     6.0686     1.1695 H       
  49 H49           -3.1919     3.6165     0.9606 H       
@<TRIPOS>BOND
   1    1    2 1
   2    1    3 2
   3    1    4 am
   4    2   17 1
   5    2   33 1
   6    2   34 1
   7    4   26 1
   8    4   35 1
   9    5    6 1
  10    5    9 1
  11    6    7 1
  12    6   36 1
  13    6   37 1
  14    7    8 1
  15    8    9 ar
  16    8   10 ar
  17    9   13 ar
  18   10   11 ar
  19   10   38 1
  20   11   12 ar
  21   11   14 1
  22   12   13 ar
  23   12   15 1
  24   13   39 1
  25   14   16 1
  26   15   16 1
  27   15   18 1
  28   15   19 1
  29   16   40 1
  30   16   41 1
  31   17   18 am
  32   17   24 1
  33   18   25 2
  34   19   20 ar
  35   19   24 ar
  36   20   21 ar
  37   20   42 1
  38   21   22 ar
  39   21   43 1
  40   22   23 ar
  41   22   44 1
  42   23   24 ar
  43   23   45 1
  44   26   27 ar
  45   26   31 ar
  46   27   28 ar
  47   27   46 1
  48   28   29 ar
  49   28   47 1
  50   29   30 ar
  51   29   32 1
  52   30   31 ar
  53   30   48 1
  54   31   49 1

#	End of record

