#	Name: ASD00170207
#	Creating user name:	WinNT
#	Creation time:	15. 06. 2019 18:31

#	Modifying user name:	WinNT
#	Modification time:	15. 06. 2019 18:31

#	Program:	/corina/corina34_cracker 3.40 0067  02.08.2006

@<TRIPOS>MOLECULE
ASD00170207
  51   54    0    0    0
SMALL
NO_CHARGES


@<TRIPOS>ATOM
   1 C1             0.0013     1.3549    -0.0665 C.2     
   2 C2             0.0227     0.0163     0.2031 C.2     
   3 C3            -1.3084    -0.5524     0.2781 C.2     
   4 C4            -2.3011     0.3762     0.0622 C.2     
   5 S5            -1.6507     1.9242    -0.2220 S.3     
   6 C6             1.2642    -0.7652     0.3964 C.ar    
   7 C7             2.0750    -0.5290     1.5072 C.ar    
   8 C8             3.2315    -1.2612     1.6815 C.ar    
   9 C9             3.5877    -2.2276     0.7580 C.ar    
  10 C10            2.7882    -2.4664    -0.3460 C.ar    
  11 C11            1.6263    -1.7457    -0.5286 C.ar    
  12 N12           -3.6476     0.0912     0.0790 N.pl3   
  13 C13           -1.5693    -1.9649     0.5535 C.2     
  14 C14           -1.6298    -2.4472     1.9507 C.ar    
  15 O15           -1.7368    -2.7438    -0.3672 O.2     
  16 C16           -1.7672    -3.8105     2.2162 C.ar    
  17 C17           -1.8224    -4.2538     3.5214 C.ar    
  18 C18           -1.7425    -3.3500     4.5661 C.ar    
  19 C19           -1.6062    -1.9972     4.3097 C.ar    
  20 C20           -1.5439    -1.5414     3.0092 C.ar    
  21 C21            1.1962     2.2020    -0.2015 C.ar    
  22 C22            1.2663     3.4267     0.4753 C.ar    
  23 C23            2.3737     4.2125     0.3506 C.ar    
  24 C24            3.4427     3.7943    -0.4549 C.ar    
  25 C25            3.3720     2.5682    -1.1316 C.ar    
  26 C26            2.2660     1.7811    -1.0021 C.ar    
  27 C27            4.6340     4.6393    -0.5899 C.2     
  28 C28            5.7826     4.1895    -1.4556 C.3     
  29 O29            4.6947     5.7003    -0.0045 O.2     
  30 C30            4.1086    -1.0072     2.8803 C.3     
  31 F31            3.7052    -1.8314     3.9364 F       
  32 F32            5.4394    -1.2874     2.5522 F       
  33 F33            3.9955     0.3330     3.2653 F       
  34 H34            1.7981     0.2254     2.2287 H       
  35 H35            4.4939    -2.7980     0.8990 H       
  36 H36            3.0722    -3.2217    -1.0637 H       
  37 H37            1.0030    -1.9332    -1.3904 H       
  38 H38           -3.9524    -0.7967     0.3234 H       
  39 H39           -4.2917     0.7781    -0.1536 H       
  40 H40           -1.8304    -4.5168     1.4017 H       
  41 H41           -1.9287    -5.3084     3.7283 H       
  42 H42           -1.7870    -3.7021     5.5862 H       
  43 H43           -1.5444    -1.2970     5.1296 H       
  44 H44           -1.4376    -0.4852     2.8103 H       
  45 H45            0.4429     3.7486     1.0956 H       
  46 H46            2.4273     5.1569     0.8718 H       
  47 H47            4.1950     2.2455    -1.7521 H       
  48 H48            2.2116     0.8365    -1.5230 H       
  49 H49            5.6343     4.5515    -2.4729 H       
  50 H50            6.7152     4.5912    -1.0593 H       
  51 H51            5.8292     3.1005    -1.4605 H       
@<TRIPOS>BOND
   1    1    2 2
   2    1   21 1
   3    1    5 1
   4    2    3 1
   5    2    6 1
   6    3    4 2
   7    3   13 1
   8    4    5 1
   9    4   12 1
  10    6    7 ar
  11    6   11 ar
  12    7    8 ar
  13    7   34 1
  14    8    9 ar
  15    8   30 1
  16    9   10 ar
  17    9   35 1
  18   10   11 ar
  19   10   36 1
  20   11   37 1
  21   12   38 1
  22   12   39 1
  23   13   14 1
  24   13   15 2
  25   14   16 ar
  26   14   20 ar
  27   16   17 ar
  28   16   40 1
  29   17   18 ar
  30   17   41 1
  31   18   19 ar
  32   18   42 1
  33   19   20 ar
  34   19   43 1
  35   20   44 1
  36   21   22 ar
  37   21   26 ar
  38   22   23 ar
  39   22   45 1
  40   23   24 ar
  41   23   46 1
  42   24   25 ar
  43   24   27 1
  44   25   26 ar
  45   25   47 1
  46   26   48 1
  47   27   28 1
  48   27   29 2
  49   28   49 1
  50   28   50 1
  51   28   51 1
  52   30   31 1
  53   30   32 1
  54   30   33 1

#	End of record

