#	Name: ASD02560389
#	Creating user name:	WinNT
#	Creation time:	15. 06. 2019 20:25

#	Modifying user name:	WinNT
#	Modification time:	15. 06. 2019 20:25

#	Program:	/corina/corina34_cracker 3.40 0067  02.08.2006

@<TRIPOS>MOLECULE
ASD02560389
  52   55    0    0    0
SMALL
NO_CHARGES


@<TRIPOS>ATOM
   1 C1             0.1359     1.3884     1.1079 C.2     
   2 C2             0.1570    -0.0178     1.0952 C.2     
   3 C3             1.2855    -0.6791     0.7691 C.2     
   4 N4             2.4260     0.0059     0.4459 N.pl3   
   5 C5             2.4354     1.3821     0.4492 C.2     
   6 C6             1.2595     2.0840     0.7891 C.2     
   7 C7             3.6782    -0.4086     0.0855 C.2     
   8 C8             4.4298     0.7281    -0.1248 C.2     
   9 N9             3.6439     1.7958     0.1049 N.2     
  10 C10            5.8540     0.7670    -0.5330 C.ar    
  11 N11            4.1123    -1.7289    -0.0446 N.3     
  12 C12            2.9889    -2.6671     0.0807 C.3     
  13 C13            3.3295    -3.9703    -0.6451 C.3     
  14 C14            6.3103     1.7768    -1.3794 C.ar    
  15 C15            7.6411     1.8117    -1.7591 C.ar    
  16 C16            8.5227     0.8406    -1.2970 C.ar    
  17 C17            8.0695    -0.1676    -0.4531 C.ar    
  18 C18            6.7406    -0.2027    -0.0665 C.ar    
  19 O19            9.8308     0.8766    -1.6715 O.3     
  20 C20            2.7313    -2.9597     1.5602 C.3     
  21 C21            1.5613    -3.9369     1.6907 C.3     
  22 C22            1.9019    -5.2400     0.9649 C.3     
  23 C23            2.1594    -4.9475    -0.5146 C.3     
  24 O24            8.0865     2.7961    -2.5850 O.3     
  25 C25            7.1265     3.7602    -3.0218 C.3     
  26 O26            8.9335    -1.1164    -0.0029 O.3     
  27 C27            8.4001    -2.1222     0.8607 C.3     
  28 H28           -0.7716     1.9140     1.3659 H       
  29 H29           -0.7355    -0.5707     1.3485 H       
  30 H30            1.2901    -1.7591     0.7631 H       
  31 H31            1.2522     3.1640     0.7963 H       
  32 H32            4.6012    -1.8645    -0.9167 H       
  33 H33            2.0963    -2.2265    -0.3633 H       
  34 H34            3.5130    -3.7618    -1.6991 H       
  35 H35            4.2221    -4.4109    -0.2011 H       
  36 H36            5.6258     2.5309    -1.7388 H       
  37 H37            6.3891    -0.9855     0.5892 H       
  38 H38           10.3957     1.3905    -1.0783 H       
  39 H39            3.6240    -3.4003     2.0042 H       
  40 H40            2.4887    -2.0313     2.0773 H       
  41 H41            1.3778    -4.1453     2.7447 H       
  42 H42            0.6687    -3.4963     1.2467 H       
  43 H43            2.7945    -5.6806     1.4089 H       
  44 H44            1.0683    -5.9362     1.0578 H       
  45 H45            1.2668    -4.5068    -0.9586 H       
  46 H46            2.4020    -5.8758    -1.0317 H       
  47 H47            7.6120     4.4869    -3.6732 H       
  48 H48            6.3294     3.2571    -3.5691 H       
  49 H49            6.7059     4.2721    -2.1562 H       
  50 H50            7.9887    -1.6529     1.7544 H       
  51 H51            7.6119    -2.6668     0.3408 H       
  52 H52            9.1926    -2.8141     1.1457 H       
@<TRIPOS>BOND
   1    1    2 1
   2    1    6 2
   3    1   28 1
   4    2    3 2
   5    2   29 1
   6    3    4 1
   7    3   30 1
   8    4    5 1
   9    4    7 1
  10    5    6 1
  11    5    9 2
  12    6   31 1
  13    7    8 2
  14    7   11 1
  15    8    9 1
  16    8   10 1
  17   10   14 ar
  18   10   18 ar
  19   11   12 1
  20   11   32 1
  21   12   13 1
  22   12   20 1
  23   12   33 1
  24   13   23 1
  25   13   34 1
  26   13   35 1
  27   14   15 ar
  28   14   36 1
  29   15   16 ar
  30   15   24 1
  31   16   17 ar
  32   16   19 1
  33   17   18 ar
  34   17   26 1
  35   18   37 1
  36   19   38 1
  37   20   21 1
  38   20   39 1
  39   20   40 1
  40   21   22 1
  41   21   41 1
  42   21   42 1
  43   22   23 1
  44   22   43 1
  45   22   44 1
  46   23   45 1
  47   23   46 1
  48   24   25 1
  49   25   47 1
  50   25   48 1
  51   25   49 1
  52   26   27 1
  53   27   50 1
  54   27   51 1
  55   27   52 1

#	End of record

