#	Name: ASD01028821
#	Creating user name:	WinNT
#	Creation time:	15. 06. 2019 18:58

#	Modifying user name:	WinNT
#	Modification time:	15. 06. 2019 18:58

#	Program:	/corina/corina34_cracker 3.40 0067  02.08.2006

@<TRIPOS>MOLECULE
ASD01028821
  34   35    0    0    0
SMALL
NO_CHARGES


@<TRIPOS>ATOM
   1 C1            -0.0170     1.4031     0.0098 C.2     
   2 C2             0.0021    -0.0041     0.0020 C.2     
   3 C3             1.1981    -0.6505    -0.0129 C.2     
   4 C4             2.4021     0.0866    -0.0199 C.2     
   5 N5             2.3864     1.4020    -0.0123 N.2     
   6 N6             1.1746     2.0949     0.0021 N.pl3   
   7 N7            -0.4669     3.4852     0.0224 N.2     
   8 N8            -0.9824     2.3059     0.0185 N.2     
   9 C9             0.8400     3.4108     0.0119 C.2     
  10 C10            3.6978    -0.6294    -0.0357 C.2     
  11 O11            3.7206    -1.8435    -0.0424 O.2     
  12 O12            4.8513     0.0658    -0.0425 O.3     
  13 C13            1.7985     4.5737     0.0088 C.3     
  14 C14            2.1047     4.9685    -1.4129 C.2     
  15 O15            1.5967     4.3673    -2.3296 O.2     
  16 O16            2.9417     5.9882    -1.6609 O.3     
  17 C17            3.1905     6.3129    -3.0540 C.3     
  18 C18            1.8722     6.6888    -3.7334 C.3     
  19 C19            4.1615     7.4924    -3.1372 C.3     
  20 C20            3.8000     5.0998    -3.7595 C.3     
  21 H21           -0.9217    -0.5635     0.0082 H       
  22 H22            1.2271    -1.7301    -0.0189 H       
  23 H23            5.6720    -0.4455    -0.0528 H       
  24 H24            1.3476     5.4175     0.5312 H       
  25 H25            2.7211     4.2854     0.5126 H       
  26 H26            1.4379     7.5531    -3.2308 H       
  27 H27            2.0589     6.9326    -4.7792 H       
  28 H28            1.1804     5.8485    -3.6741 H       
  29 H29            5.1008     7.2246    -2.6532 H       
  30 H30            4.3483     7.7362    -4.1831 H       
  31 H31            3.7273     8.3566    -2.6346 H       
  32 H32            3.1083     4.2595    -3.7002 H       
  33 H33            3.9868     5.3436    -4.8053 H       
  34 H34            4.7393     4.8320    -3.2755 H       
@<TRIPOS>BOND
   1    1    2 1
   2    1    6 1
   3    1    8 2
   4    2    3 2
   5    2   21 1
   6    3    4 1
   7    3   22 1
   8    4    5 2
   9    4   10 1
  10    5    6 1
  11    6    9 1
  12    7    8 1
  13    7    9 2
  14    9   13 1
  15   10   11 2
  16   10   12 1
  17   12   23 1
  18   13   14 1
  19   13   24 1
  20   13   25 1
  21   14   15 2
  22   14   16 1
  23   16   17 1
  24   17   18 1
  25   17   20 1
  26   17   19 1
  27   18   26 1
  28   18   27 1
  29   18   28 1
  30   19   29 1
  31   19   30 1
  32   19   31 1
  33   20   32 1
  34   20   33 1
  35   20   34 1

#	End of record

