#	Name: ASD01911895
#	Creating user name:	WinNT
#	Creation time:	15. 06. 2019 19:58

#	Modifying user name:	WinNT
#	Modification time:	15. 06. 2019 19:58

#	Program:	/corina/corina34_cracker 3.40 0067  02.08.2006

@<TRIPOS>MOLECULE
ASD01911895
  47   49    0    0    0
SMALL
NO_CHARGES


@<TRIPOS>ATOM
   1 C1            -0.2465     2.2232     0.3568 C.ar    
   2 C2            -0.4595     0.8681     0.5385 C.ar    
   3 C3             0.6146    -0.0029     0.5916 C.ar    
   4 C4             1.9030     0.4781     0.4634 C.ar    
   5 C5             2.1206     1.8374     0.2805 C.ar    
   6 C6             1.0405     2.7103     0.2274 C.ar    
   7 N7             3.4238     2.3269     0.1509 N.3     
   8 C8             4.2216     2.0233     1.3464 C.3     
   9 C9             5.5783     2.7283     1.2438 C.3     
  10 N10            6.2042     2.3534    -0.0333 N.am    
  11 C11            5.4143     2.5007    -1.2651 C.3     
  12 C12            4.0640     1.8046    -1.0637 C.3     
  13 C13            7.4683     1.8876    -0.0736 C.2     
  14 C14            8.0474     1.3917    -1.3735 C.3     
  15 O15            9.3906     0.9533    -1.1601 O.3     
  16 C16           10.0352     0.4609    -2.3366 C.3     
  17 O17            8.1397     1.8675     0.9362 O.2     
  18 C18           11.4384     0.0286    -1.9970 C.ar    
  19 C19           11.7028    -1.2718    -1.5953 C.ar    
  20 C20           13.0022    -1.6321    -1.2924 C.ar    
  21 N21           13.9834    -0.7556    -1.3816 N.ar    
  22 C22           13.7690     0.4893    -1.7601 C.ar    
  23 C23           12.4965     0.9203    -2.0845 C.ar    
  24 Cl24           1.3074     4.4103    -0.0016 Cl      
  25 Cl25          -2.0772     0.2595     0.7006 Cl      
  26 C26            6.4745     2.2897     2.4037 C.3     
  27 H27           -1.0868     2.9002     0.3116 H       
  28 H28            0.4452    -1.0600     0.7339 H       
  29 H29            2.7406    -0.2024     0.5057 H       
  30 H30            3.6952     2.3747     2.2339 H       
  31 H31            4.3757     0.9465     1.4171 H       
  32 H32            5.4333     3.8081     1.2774 H       
  33 H33            5.2535     3.5586    -1.4727 H       
  34 H34            5.9443     2.0378    -2.0975 H       
  35 H35            4.2203     0.7309    -0.9595 H       
  36 H36            3.4234     1.9976    -1.9242 H       
  37 H37            7.4484     0.5600    -1.7444 H       
  38 H38            8.0408     2.1991    -2.1057 H       
  39 H39            9.4774    -0.3901    -2.7274 H       
  40 H40           10.0699     1.2490    -3.0887 H       
  41 H41           10.9034    -1.9940    -1.5196 H       
  42 H42           13.2165    -2.6430    -0.9787 H       
  43 H43           14.5979     1.1790    -1.8210 H       
  44 H44           12.3273     1.9410    -2.3941 H       
  45 H45            6.7376     1.2390     2.2824 H       
  46 H46            7.3821     2.8933     2.4099 H       
  47 H47            5.9421     2.4246     3.3453 H       
@<TRIPOS>BOND
   1    1    2 ar
   2    1    6 ar
   3    1   27 1
   4    2    3 ar
   5    2   25 1
   6    3    4 ar
   7    3   28 1
   8    4    5 ar
   9    4   29 1
  10    5    6 ar
  11    5    7 1
  12    6   24 1
  13    7    8 1
  14    7   12 1
  15    8    9 1
  16    8   30 1
  17    8   31 1
  18    9   10 1
  19    9   26 1
  20    9   32 1
  21   10   11 1
  22   10   13 am
  23   11   12 1
  24   11   33 1
  25   11   34 1
  26   12   35 1
  27   12   36 1
  28   13   14 1
  29   13   17 2
  30   14   15 1
  31   14   37 1
  32   14   38 1
  33   15   16 1
  34   16   18 1
  35   16   39 1
  36   16   40 1
  37   18   19 ar
  38   18   23 ar
  39   19   20 ar
  40   19   41 1
  41   20   21 ar
  42   20   42 1
  43   21   22 ar
  44   22   23 ar
  45   22   43 1
  46   23   44 1
  47   26   45 1
  48   26   46 1
  49   26   47 1

#	End of record

