#	Name: ASD09116267
#	Creating user name:	WinNT
#	Creation time:	15. 06. 2019 21:21

#	Modifying user name:	WinNT
#	Modification time:	15. 06. 2019 21:21

#	Program:	/corina/corina34_cracker 3.40 0067  02.08.2006

@<TRIPOS>MOLECULE
ASD09116267
  79   85    0    0    0
SMALL
NO_CHARGES


@<TRIPOS>ATOM
   1 N1            -0.0566     1.5273    -0.5269 N.pl3   
   2 N2            -0.0775     0.2484    -1.1062 N.2     
   3 C3             1.2417     1.9096    -0.4913 C.2     
   4 N4             1.9640     0.9390    -1.0095 N.2     
   5 C5             1.1652    -0.0673    -1.3821 C.2     
   6 N6             1.7236     3.1081     0.0016 N.pl3   
   7 C7             3.1044     3.3274     0.0824 C.ar    
   8 C8             3.6099     4.6159    -0.0254 C.ar    
   9 C9             4.9720     4.8333     0.0542 C.ar    
  10 C10            5.8359     3.7640     0.2425 C.ar    
  11 C11            5.3304     2.4727     0.3511 C.ar    
  12 C12            3.9675     2.2564     0.2762 C.ar    
  13 C13           -1.1571     2.2617    -0.0815 C.ar    
  14 N14           -1.0021     3.1841     0.8565 N.ar    
  15 N15           -1.9836     3.8808     1.3081 N.ar    
  16 C16           -3.2171     3.7144     0.8588 C.ar    
  17 C17           -3.4728     2.7779    -0.1470 C.ar    
  18 C18           -2.4211     2.0278    -0.6291 C.ar    
  19 C19           -4.3584     4.4774     1.4154 C.ar    
  20 C20           -5.5071     3.7859     1.8031 C.ar    
  21 C21           -5.5356     2.2856     1.6988 C.3     
  22 C22           -5.7437     1.8316     0.2565 C.3     
  23 C23           -4.8625     2.6354    -0.6960 C.3     
  24 C24           -4.2998     5.8600     1.5503 C.ar    
  25 C25           -5.3899     6.5448     2.0515 C.ar    
  26 C26           -6.5340     5.8580     2.4151 C.ar    
  27 C27           -6.5932     4.4808     2.2903 C.ar    
  28 N28            1.5861    -1.2603    -1.9689 N.pl3   
  29 N29            7.2172     3.9848     0.3227 N.3     
  30 C30            7.7236     4.6061    -0.9090 C.3     
  31 C31            9.2167     4.9029    -0.7509 C.3     
  32 N32            9.9339     3.6533    -0.4615 N.3     
  33 C33            9.4275     3.0320     0.7702 C.3     
  34 C34            7.9344     2.7352     0.6121 C.3     
  35 F35            6.1710     1.4310     0.5344 F       
  36 C36           11.3821     3.8848    -0.3774 C.3     
  37 C37           12.0833     2.5914     0.0469 C.3     
  38 C38           11.9116     4.3174    -1.7475 C.3     
  39 C39           13.4292     4.4980    -1.6686 C.3     
  40 N40           14.0534     3.2333    -1.2597 N.3     
  41 C41           13.5959     2.8221     0.0738 C.3     
  42 C42           15.5184     3.3297    -1.3071 C.3     
  43 H43            1.1052     3.7970     0.2914 H       
  44 H44            2.9380     5.4487    -0.1720 H       
  45 H45            5.3644     5.8359    -0.0305 H       
  46 H46            3.5742     1.2541     0.3605 H       
  47 H47           -2.5701     1.2817    -1.3956 H       
  48 H48           -4.5910     1.8846     2.0661 H       
  49 H49           -6.3486     1.9008     2.3145 H       
  50 H50           -5.4912     0.7746     0.1730 H       
  51 H51           -6.7894     1.9727    -0.0169 H       
  52 H52           -5.2960     3.6257    -0.8357 H       
  53 H53           -4.8171     2.1258    -1.6584 H       
  54 H54           -3.4065     6.3959     1.2651 H       
  55 H55           -5.3485     7.6186     2.1599 H       
  56 H56           -7.3862     6.3995     2.7987 H       
  57 H57           -7.4899     3.9506     2.5756 H       
  58 H58            2.5292    -1.4113    -2.1380 H       
  59 H59            0.9358    -1.9391    -2.2080 H       
  60 H60            7.5749     3.9256    -1.7474 H       
  61 H61            7.1858     5.5358    -1.0951 H       
  62 H62            9.6009     5.3372    -1.6739 H       
  63 H63            9.3631     5.6047     0.0701 H       
  64 H64            9.9653     2.1023     0.9563 H       
  65 H65            9.5762     3.7126     1.6086 H       
  66 H66            7.5502     2.3009     1.5351 H       
  67 H67            7.7880     2.0334    -0.2089 H       
  68 H68           11.5841     4.6660     0.3554 H       
  69 H69           11.7417     2.3014     1.0406 H       
  70 H70           11.8485     1.7999    -0.6647 H       
  71 H71           11.6740     3.5529    -2.4873 H       
  72 H72           11.4473     5.2604    -2.0358 H       
  73 H73           13.8112     4.7921    -2.6462 H       
  74 H74           13.6653     5.2723    -0.9386 H       
  75 H75           13.8313     3.6042     0.7956 H       
  76 H76           14.0990     1.8991     0.3617 H       
  77 H77           15.8526     4.1184    -0.6330 H       
  78 H78           15.9553     2.3796    -0.9996 H       
  79 H79           15.8345     3.5628    -2.3239 H       
@<TRIPOS>BOND
   1    1    2 1
   2    1    3 1
   3    1   13 1
   4    2    5 2
   5    3    4 2
   6    3    6 1
   7    4    5 1
   8    5   28 1
   9    6    7 1
  10    6   43 1
  11    7    8 ar
  12    7   12 ar
  13    8    9 ar
  14    8   44 1
  15    9   10 ar
  16    9   45 1
  17   10   11 ar
  18   10   29 1
  19   11   12 ar
  20   11   35 1
  21   12   46 1
  22   13   14 ar
  23   13   18 ar
  24   14   15 ar
  25   15   16 ar
  26   16   17 ar
  27   16   19 1
  28   17   18 ar
  29   17   23 1
  30   18   47 1
  31   19   20 ar
  32   19   24 ar
  33   20   21 1
  34   20   27 ar
  35   21   22 1
  36   21   48 1
  37   21   49 1
  38   22   23 1
  39   22   50 1
  40   22   51 1
  41   23   52 1
  42   23   53 1
  43   24   25 ar
  44   24   54 1
  45   25   26 ar
  46   25   55 1
  47   26   27 ar
  48   26   56 1
  49   27   57 1
  50   28   58 1
  51   28   59 1
  52   29   30 1
  53   29   34 1
  54   30   31 1
  55   30   60 1
  56   30   61 1
  57   31   32 1
  58   31   62 1
  59   31   63 1
  60   32   33 1
  61   32   36 1
  62   33   34 1
  63   33   64 1
  64   33   65 1
  65   34   66 1
  66   34   67 1
  67   36   37 1
  68   36   38 1
  69   36   68 1
  70   37   41 1
  71   37   69 1
  72   37   70 1
  73   38   39 1
  74   38   71 1
  75   38   72 1
  76   39   40 1
  77   39   73 1
  78   39   74 1
  79   40   41 1
  80   40   42 1
  81   41   75 1
  82   41   76 1
  83   42   77 1
  84   42   78 1
  85   42   79 1

#	End of record

