#	Name: ASD05872045
#	Creating user name:	WinNT
#	Creation time:	15. 06. 2019 21:04

#	Modifying user name:	WinNT
#	Modification time:	15. 06. 2019 21:04

#	Program:	/corina/corina34_cracker 3.40 0067  02.08.2006

@<TRIPOS>MOLECULE
ASD05872045
  57   60    0    0    0
SMALL
NO_CHARGES


@<TRIPOS>ATOM
   1 C1             0.1038     1.8061    -1.6931 C.ar    
   2 C2             0.6384     0.6558    -2.2353 C.ar    
   3 C3             1.6082    -0.0538    -1.5483 C.ar    
   4 C4             2.0502     0.3831    -0.3138 C.ar    
   5 C5             1.5236     1.5366     0.2440 C.ar    
   6 C6             0.5421     2.2570    -0.4475 C.ar    
   7 C7            -0.0262     3.4888     0.1386 C.2     
   8 N8            -1.3620     3.7917     0.2686 N.pl3   
   9 N9             0.6480     4.4981     0.6388 N.2     
  10 N10           -0.1628     5.4007     1.0623 N.2     
  11 C11           -1.4047     5.0221     0.8612 C.2     
  12 C12           -2.5009     2.9673    -0.1431 C.3     
  13 C13           -2.9161     2.0775     1.0001 C.ar    
  14 C14           -3.8911     2.4986     1.8850 C.ar    
  15 C15           -2.3260     0.8377     1.1606 C.ar    
  16 C16           -2.7069     0.0215     2.2093 C.ar    
  17 C17           -3.6775     0.4452     3.0977 C.ar    
  18 C18           -4.2719     1.6825     2.9336 C.ar    
  19 S19           -2.8552     5.9316     1.2780 S.3     
  20 C20           -2.1021     7.4094     2.0027 C.3     
  21 C21           -3.1850     8.3596     2.4448 C.2     
  22 N22           -2.8576     9.5351     3.0171 N.am    
  23 O23           -4.3511     8.0666     2.2857 O.2     
  24 C24           -3.8599    10.3701     3.5231 C.ar    
  25 C25           -5.0104     9.8204     4.0738 C.ar    
  26 C26           -3.7032    11.7485     3.4806 C.ar    
  27 C27           -4.6981    12.5722     3.9828 C.ar    
  28 C28           -5.8484    12.0175     4.5267 C.ar    
  29 C29           -6.0003    10.6449     4.5730 C.ar    
  30 O30           -4.5475    13.9222     3.9431 O.3     
  31 S31           -5.0848    14.5680     2.6739 S.o2    
  32 O32           -4.5362    15.9143     2.6236 O.co2   
  33 O33           -4.6275    13.7502     1.5612 O.co2   
  34 O34           -6.5350    14.5733     2.7876 O.co2   
  35 O35            1.9571     1.9666     1.4575 O.3     
  36 S36            3.2532     2.7627     1.4054 S.o2    
  37 O37            3.7251     2.8859     2.7758 O.co2   
  38 O38            4.1775     2.0054     0.5757 O.co2   
  39 O39            2.9286     4.0549     0.8215 O.co2   
  40 H40           -0.6498     2.3593    -2.2340 H       
  41 H41            0.2987     0.3073    -3.1995 H       
  42 H42            2.0214    -0.9539    -1.9791 H       
  43 H43            2.8069    -0.1757     0.2169 H       
  44 H44           -3.3340     3.6121    -0.4227 H       
  45 H45           -2.2148     2.3526    -0.9966 H       
  46 H46           -4.3550     3.4655     1.7572 H       
  47 H47           -1.5677     0.5067     0.4665 H       
  48 H48           -2.2464    -0.9474     2.3342 H       
  49 H49           -3.9753    -0.1926     3.9167 H       
  50 H50           -5.0302     2.0135     3.6277 H       
  51 H51           -1.4959     7.1239     2.8624 H       
  52 H52           -1.4716     7.8975     1.2595 H       
  53 H53           -1.9271     9.8023     3.0782 H       
  54 H54           -5.1315     8.7479     4.1114 H       
  55 H55           -2.8074    12.1783     3.0573 H       
  56 H56           -6.6236    12.6594     4.9184 H       
  57 H57           -6.8963    10.2158     4.9967 H       
@<TRIPOS>BOND
   1    1    2 ar
   2    1    6 ar
   3    1   40 1
   4    2    3 ar
   5    2   41 1
   6    3    4 ar
   7    3   42 1
   8    4    5 ar
   9    4   43 1
  10    5    6 ar
  11    5   35 1
  12    6    7 1
  13    7    8 1
  14    7    9 2
  15    8   12 1
  16    8   11 1
  17    9   10 1
  18   10   11 2
  19   11   19 1
  20   12   13 1
  21   12   44 1
  22   12   45 1
  23   13   14 ar
  24   13   15 ar
  25   14   18 ar
  26   14   46 1
  27   15   16 ar
  28   15   47 1
  29   16   17 ar
  30   16   48 1
  31   17   18 ar
  32   17   49 1
  33   18   50 1
  34   19   20 1
  35   20   21 1
  36   20   51 1
  37   20   52 1
  38   21   22 am
  39   21   23 2
  40   22   24 1
  41   22   53 1
  42   24   25 ar
  43   24   26 ar
  44   25   29 ar
  45   25   54 1
  46   26   27 ar
  47   26   55 1
  48   27   28 ar
  49   27   30 1
  50   28   29 ar
  51   28   56 1
  52   29   57 1
  53   30   31 1
  54   31   32 ar
  55   31   33 ar
  56   31   34 ar
  57   35   36 1
  58   36   37 ar
  59   36   38 ar
  60   36   39 ar

#	End of record

