#	Name: ASD08150591
#	Creating user name:	WinNT
#	Creation time:	15. 06. 2019 21:16

#	Modifying user name:	WinNT
#	Modification time:	15. 06. 2019 21:16

#	Program:	/corina/corina34_cracker 3.40 0067  02.08.2006

@<TRIPOS>MOLECULE
ASD08150591
  55   59    0    0    0
SMALL
NO_CHARGES


@<TRIPOS>ATOM
   1 N1            -0.2436     1.3683    -1.3624 N.am    
   2 C2            -0.1986     0.4569    -2.3535 C.2     
   3 C3             0.9381    -0.3560    -2.5381 C.2     
   4 C4             2.0092    -0.2299    -1.7138 C.2     
   5 C5             1.9654     0.7278    -0.6701 C.ar    
   6 C6             3.0489     0.8991     0.2126 C.ar    
   7 N7             3.0057     1.7835     1.1746 N.ar    
   8 C8             1.9393     2.5722     1.3770 C.ar    
   9 C9             0.8035     2.4687     0.5367 C.ar    
  10 C10            0.8184     1.5213    -0.5138 C.ar    
  11 C11           -0.3031     3.2946     0.7567 C.ar    
  12 C12           -0.2763     4.2083     1.7978 C.ar    
  13 C13            0.8513     4.3050     2.6252 C.ar    
  14 C14            1.9354     3.5090     2.4235 C.ar    
  15 O15           -1.1542     0.3333    -3.1007 O.2     
  16 C16           -1.4456     5.0885     2.0378 C.ar    
  17 C17           -1.3826     2.1683    -1.2035 C.ar    
  18 C18           -1.4676     3.3931    -1.8530 C.ar    
  19 C19           -2.5904     4.1806    -1.6963 C.ar    
  20 C20           -3.6339     3.7491    -0.8897 C.ar    
  21 C21           -3.5495     2.5261    -0.2403 C.ar    
  22 C22           -2.4296     1.7345    -0.4011 C.ar    
  23 O23           -4.7392     4.5253    -0.7355 O.3     
  24 C24           -4.8250     5.7000    -1.5447 C.3     
  25 C25           -6.1702     6.3880    -1.3038 C.3     
  26 C26           -2.6282     4.8998     1.3284 C.ar    
  27 N27           -3.6703     5.6791     1.5384 N.ar    
  28 C28           -3.6370     6.6639     2.4234 C.ar    
  29 C29           -2.4891     6.9138     3.1709 C.ar    
  30 C30           -1.3771     6.1170     2.9852 C.ar    
  31 N31           -4.7618     7.4581     2.6080 N.pl3   
  32 O32           -6.2297     6.8591     0.0440 O.3     
  33 C33           -4.6830     2.0585     0.6358 C.3     
  34 F34           -4.3685     0.8074     1.1772 F       
  35 F35           -4.8820     2.9780     1.6712 F       
  36 F36           -5.8508     1.9560    -0.1277 F       
  37 H37            0.9567    -1.0817    -3.3377 H       
  38 H38            2.8822    -0.8508    -1.8512 H       
  39 H39            3.9317     0.2886     0.0931 H       
  40 H40           -1.1721     3.2211     0.1196 H       
  41 H41            0.8595     5.0217     3.4330 H       
  42 H42            2.7955     3.5967     3.0708 H       
  43 H43           -0.6552     3.7294    -2.4802 H       
  44 H44           -2.6566     5.1330    -2.2012 H       
  45 H45           -2.3660     0.7802     0.1006 H       
  46 H46           -4.0161     6.3818    -1.2825 H       
  47 H47           -4.7412     5.4239    -2.5958 H       
  48 H48           -6.2753     7.2301    -1.9880 H       
  49 H49           -6.9781     5.6769    -1.4761 H       
  50 H50           -2.6925     4.1068     0.5980 H       
  51 H51           -2.4703     7.7188     3.8906 H       
  52 H52           -0.4734     6.2881     3.5512 H       
  53 H53           -5.5475     7.3221     2.0557 H       
  54 H54           -4.7614     8.1487     3.2892 H       
  55 H55           -7.0568     7.3072     0.2679 H       
@<TRIPOS>BOND
   1    1    2 am
   2    1   10 1
   3    1   17 1
   4    2    3 1
   5    2   15 2
   6    3    4 2
   7    3   37 1
   8    4    5 1
   9    4   38 1
  10    5    6 ar
  11    5   10 ar
  12    6    7 ar
  13    6   39 1
  14    7    8 ar
  15    8    9 ar
  16    8   14 ar
  17    9   10 ar
  18    9   11 ar
  19   11   12 ar
  20   11   40 1
  21   12   13 ar
  22   12   16 1
  23   13   14 ar
  24   13   41 1
  25   14   42 1
  26   16   26 ar
  27   16   30 ar
  28   17   18 ar
  29   17   22 ar
  30   18   19 ar
  31   18   43 1
  32   19   20 ar
  33   19   44 1
  34   20   21 ar
  35   20   23 1
  36   21   22 ar
  37   21   33 1
  38   22   45 1
  39   23   24 1
  40   24   25 1
  41   24   46 1
  42   24   47 1
  43   25   32 1
  44   25   48 1
  45   25   49 1
  46   26   27 ar
  47   26   50 1
  48   27   28 ar
  49   28   29 ar
  50   28   31 1
  51   29   30 ar
  52   29   51 1
  53   30   52 1
  54   31   53 1
  55   31   54 1
  56   32   55 1
  57   33   34 1
  58   33   35 1
  59   33   36 1

#	End of record

