#	Name: ASD01209373
#	Creating user name:	WinNT
#	Creation time:	15. 06. 2019 19:11

#	Modifying user name:	WinNT
#	Modification time:	15. 06. 2019 19:11

#	Program:	/corina/corina34_cracker 3.40 0067  02.08.2006

@<TRIPOS>MOLECULE
ASD01209373
  30   31    0    0    0
SMALL
NO_CHARGES


@<TRIPOS>ATOM
   1 N1            -0.0162     1.3410     0.0094 N.am    
   2 C2             0.0021    -0.0041     0.0020 C.2     
   3 C3             1.4121    -0.4523    -0.0139 C.2     
   4 C4             2.1715     0.6557    -0.0152 C.2     
   5 C5             1.2449     1.8091    -0.0001 C.2     
   6 O6            -0.9729    -0.7274     0.0074 O.2     
   7 O7             1.5679     2.9794     0.0027 O.2     
   8 C8             1.9019    -1.8774    -0.0257 C.3     
   9 C9            -1.2245     2.1692     0.0198 C.3     
  10 C10           -1.6319     2.4455     1.4442 C.ar    
  11 C11           -1.1411     3.5603     2.0985 C.ar    
  12 C12           -1.5130     3.8157     3.4042 C.ar    
  13 C13           -2.3797     2.9527     4.0589 C.ar    
  14 C14           -2.8708     1.8349     3.4001 C.ar    
  15 C15           -2.5003     1.5869     2.0926 C.ar    
  16 O16           -2.7467     3.2016     5.3435 O.3     
  17 C17           -3.6420     2.2703     5.9545 C.3     
  18 H18            3.2507     0.6967    -0.0247 H       
  19 H19            2.0101    -2.2158    -1.0562 H       
  20 H20            2.8666    -1.9343     0.4785 H       
  21 H21            1.1833    -2.5129     0.4919 H       
  22 H22           -1.0235     3.1115    -0.4899 H       
  23 H23           -2.0299     1.6434    -0.4929 H       
  24 H24           -0.4661     4.2316     1.5886 H       
  25 H25           -1.1291     4.6864     3.9150 H       
  26 H26           -3.5456     1.1615     3.9076 H       
  27 H27           -2.8860     0.7194     1.5777 H       
  28 H28           -3.8531     2.5860     6.9762 H       
  29 H29           -4.5714     2.2335     5.3862 H       
  30 H30           -3.1844     1.2811     5.9670 H       
@<TRIPOS>BOND
   1    1    2 am
   2    1    5 am
   3    1    9 1
   4    2    3 1
   5    2    6 2
   6    3    4 2
   7    3    8 1
   8    4    5 1
   9    4   18 1
  10    5    7 2
  11    8   19 1
  12    8   20 1
  13    8   21 1
  14    9   10 1
  15    9   22 1
  16    9   23 1
  17   10   11 ar
  18   10   15 ar
  19   11   12 ar
  20   11   24 1
  21   12   13 ar
  22   12   25 1
  23   13   14 ar
  24   13   16 1
  25   14   15 ar
  26   14   26 1
  27   15   27 1
  28   16   17 1
  29   17   28 1
  30   17   29 1
  31   17   30 1

#	End of record

