#	Name: ASD07930054
#	Creating user name:	WinNT
#	Creation time:	15. 06. 2019 21:11

#	Modifying user name:	WinNT
#	Modification time:	15. 06. 2019 21:11

#	Program:	/corina/corina34_cracker 3.40 0067  02.08.2006

@<TRIPOS>MOLECULE
ASD07930054
  55   57    0    0    0
SMALL
NO_CHARGES


@<TRIPOS>ATOM
   1 C1            -0.2611     1.5536    -0.1410 C.3     
   2 C2             1.2006     1.9924    -0.0326 C.3     
   3 C3             1.2732     3.5126     0.1428 C.3     
   4 C4             0.9859     4.1958    -1.1652 C.2     
   5 N5             1.1319     3.5786    -2.3468 N.am    
   6 C6             1.4977     2.2576    -2.4208 C.2     
   7 N7             1.9194     1.6408    -1.2704 N.pl3   
   8 C8             1.8604     1.3018     1.1627 C.3     
   9 N9             1.4447     1.5978    -3.5686 N.2     
  10 O10            0.6077     5.3475    -1.1513 O.2     
  11 C11            0.8958     4.3288    -3.5828 C.3     
  12 C12           -0.3336     0.0250    -0.2084 C.3     
  13 C13           -1.8018    -0.4077    -0.2372 C.3     
  14 O14           -2.4695     0.1001     0.9197 O.3     
  15 C15           -2.4750     1.5262     1.0112 C.3     
  16 C16           -1.0339     2.0366     1.0902 C.3     
  17 C17            2.6519     3.8962     0.6151 C.ar    
  18 C18            2.8120     4.5494     1.8228 C.ar    
  19 C19            4.0767     4.9013     2.2560 C.ar    
  20 C20            5.1813     4.5996     1.4816 C.ar    
  21 C21            5.0213     3.9456     0.2743 C.ar    
  22 C22            3.7570     3.5899    -0.1568 C.ar    
  23 S23            6.8371     5.0615     2.0483 Du      
  24 F24            8.3100     5.4723     2.5523 F       
  25 F25            7.3844     3.6044     1.6366 F       
  26 F26            6.4860     4.5136     3.5209 F       
  27 F27            7.1883     5.6094     0.5756 F       
  28 F28            6.2899     6.5186     2.4599 F       
  29 C29            0.8260     2.1363    -4.6188 C.2     
  30 C30            1.5787     2.3558    -5.9058 C.3     
  31 F31            0.7241     2.9283    -6.8540 F       
  32 F32            2.6592     3.2136    -5.6736 F       
  33 F33            2.0516     1.1293    -6.3845 F       
  34 O34           -0.3452     2.4504    -4.5387 O.2     
  35 H35           -0.7039     1.9796    -1.0413 H       
  36 H36            0.5383     3.8267     0.8840 H       
  37 H37            2.6535     1.0068    -1.2718 H       
  38 H38            1.8172     0.2211     1.0272 H       
  39 H39            2.9011     1.6175     1.2356 H       
  40 H40            1.3330     1.5747     2.0767 H       
  41 H41            1.0651     5.3902    -3.4016 H       
  42 H42            1.5793     3.9787    -4.3564 H       
  43 H43           -0.1325     4.1755    -3.9101 H       
  44 H44            0.1668    -0.3239    -1.1117 H       
  45 H45            0.1548    -0.4018     0.6677 H       
  46 H46           -2.2792    -0.0141    -1.1346 H       
  47 H47           -1.8600    -1.4962    -0.2420 H       
  48 H48           -2.9612     1.9451     0.1302 H       
  49 H49           -3.0181     1.8309     1.9058 H       
  50 H50           -0.5596     1.6505     1.9925 H       
  51 H51           -1.0343     3.1263     1.1156 H       
  52 H52            1.9489     4.7851     2.4278 H       
  53 H53            4.2017     5.4123     3.1992 H       
  54 H54            5.8844     3.7102    -0.3308 H       
  55 H55            3.6320     3.0789    -1.1000 H       
@<TRIPOS>BOND
   1    1   12 1
   2    1    2 1
   3    1   16 1
   4    1   35 1
   5    2    8 1
   6    2    3 1
   7    2    7 1
   8    3    4 1
   9    3   17 1
  10    3   36 1
  11    4    5 am
  12    4   10 2
  13    5    6 1
  14    5   11 1
  15    6    7 1
  16    6    9 2
  17    7   37 1
  18    8   38 1
  19    8   39 1
  20    8   40 1
  21    9   29 1
  22   11   41 1
  23   11   42 1
  24   11   43 1
  25   12   13 1
  26   12   44 1
  27   12   45 1
  28   13   14 1
  29   13   46 1
  30   13   47 1
  31   14   15 1
  32   15   16 1
  33   15   48 1
  34   15   49 1
  35   16   50 1
  36   16   51 1
  37   17   18 ar
  38   17   22 ar
  39   18   19 ar
  40   18   52 1
  41   19   20 ar
  42   19   53 1
  43   20   21 ar
  44   20   23 1
  45   21   22 ar
  46   21   54 1
  47   22   55 1
  48   23   24 1
  49   23   25 1
  50   23   26 1
  51   23   27 1
  52   23   28 1
  53   29   30 1
  54   29   34 2
  55   30   31 1
  56   30   32 1
  57   30   33 1

#	End of record

