#	Name: ASD03430788
#	Creating user name:	WinNT
#	Creation time:	15. 06. 2019 20:41

#	Modifying user name:	WinNT
#	Modification time:	15. 06. 2019 20:41

#	Program:	/corina/corina34_cracker 3.40 0067  02.08.2006

@<TRIPOS>MOLECULE
ASD03430788
  34   38    0    0    0
SMALL
NO_CHARGES


@<TRIPOS>ATOM
   1 C1            -0.0165     1.3622     0.0095 C.ar    
   2 C2             0.0021    -0.0041     0.0020 C.ar    
   3 C3             1.2088    -0.6763    -0.0138 C.ar    
   4 C4             2.4061     0.0364    -0.0116 C.ar    
   5 C5             2.3779     1.4224    -0.0089 C.ar    
   6 C6             1.1600     2.1243     0.0024 C.ar    
   7 C7             1.5727    -2.1349    -0.0482 C.3     
   8 C8             3.0593    -2.1168    -0.4316 C.3     
   9 C9             0.4719    -3.8683     1.0025 C.ar    
  10 C10            1.3436    -2.8155     1.2686 C.ar    
  11 C11            0.7517    -2.9052    -1.0423 C.2     
  12 N12            0.1455    -3.8939    -0.3555 N.am    
  13 O13            0.6529    -2.6811    -2.2302 O.2     
  14 C14            1.8027    -2.5926     2.5476 C.ar    
  15 C15            1.3999    -3.4178     3.5824 C.ar    
  16 C16            0.5350    -4.4670     3.3294 C.ar    
  17 C17            0.0721    -4.6944     2.0502 C.ar    
  18 O18            3.4777    -0.8087     0.0016 O.3     
  19 S19           -1.3083     2.5774     0.0212 S.o2    
  20 C20           -0.2970     4.0434     0.0218 C.2     
  21 C21            0.9394     3.5771     0.0093 C.2     
  22 O22           -1.9749     2.5122    -1.2321 O.2     
  23 O23           -1.9618     2.5021     1.2807 O.2     
  24 H24           -0.9253    -0.5576     0.0088 H       
  25 H25            3.3074     1.9723    -0.0157 H       
  26 H26            3.6060    -2.8944     0.1018 H       
  27 H27            3.1824    -2.2253    -1.5091 H       
  28 H28           -0.4483    -4.5472    -0.7574 H       
  29 H29            2.4783    -1.7730     2.7431 H       
  30 H30            1.7603    -3.2433     4.5854 H       
  31 H31            0.2209    -5.1114     4.1372 H       
  32 H32           -0.6029    -5.5158     1.8603 H       
  33 H33           -0.6194     5.0741     0.0267 H       
  34 H34            1.7789     4.2566     0.0064 H       
@<TRIPOS>BOND
   1    1    2 ar
   2    1    6 ar
   3    1   19 1
   4    2    3 ar
   5    2   24 1
   6    3    4 ar
   7    3    7 1
   8    4    5 ar
   9    4   18 1
  10    5    6 ar
  11    5   25 1
  12    6   21 1
  13    7    8 1
  14    7   10 1
  15    7   11 1
  16    8   18 1
  17    8   26 1
  18    8   27 1
  19    9   10 ar
  20    9   12 1
  21    9   17 ar
  22   10   14 ar
  23   11   12 am
  24   11   13 2
  25   12   28 1
  26   14   15 ar
  27   14   29 1
  28   15   16 ar
  29   15   30 1
  30   16   17 ar
  31   16   31 1
  32   17   32 1
  33   19   20 1
  34   19   22 2
  35   19   23 2
  36   20   21 2
  37   20   33 1
  38   21   34 1

#	End of record

