#	Name: ASD01230802
#	Creating user name:	WinNT
#	Creation time:	15. 06. 2019 19:15

#	Modifying user name:	WinNT
#	Modification time:	15. 06. 2019 19:15

#	Program:	/corina/corina34_cracker 3.40 0067  02.08.2006

@<TRIPOS>MOLECULE
ASD01230802
  33   36    0    0    0
SMALL
NO_CHARGES


@<TRIPOS>ATOM
   1 C1            -0.0167     1.3774     0.0096 C.2     
   2 C2             0.0021    -0.0041     0.0020 C.2     
   3 C3            -1.2137    -0.6987     0.0078 C.2     
   4 C4            -2.3847    -0.0373     0.0096 C.2     
   5 N5            -2.4635     1.3328    -0.0001 N.pl3   
   6 C6            -1.3196     2.0790     0.0320 C.2     
   7 C7            -3.8118     1.9044    -0.0511 C.3     
   8 C8            -3.8820     3.1903     0.7778 C.3     
   9 S9            -2.6265     4.3274     0.1103 S.o2    
  10 N10           -1.2656     3.3870     0.0815 N.am    
  11 C11            1.2432     2.1416     0.0017 C.2     
  12 O12           -2.8909     4.6262    -1.2535 O.2     
  13 O13           -2.3271     5.3537     1.0463 O.2     
  14 C14            2.1445     2.1506    -1.0133 C.2     
  15 C15            3.2274     3.0386    -0.5862 C.ar    
  16 C16            2.8617     3.4967     0.6925 C.ar    
  17 O17            1.6712     2.9412     0.9988 O.3     
  18 C18            4.4254     3.4609    -1.1653 C.ar    
  19 C19            5.2410     4.3211    -0.4841 C.ar    
  20 C20            4.8853     4.7756     0.7776 C.ar    
  21 C21            3.7055     4.3700     1.3659 C.ar    
  22 H22            0.9398    -0.5398    -0.0086 H       
  23 H23           -1.2110    -1.7787     0.0105 H       
  24 H24           -3.3014    -0.6083     0.0187 H       
  25 H25           -4.0680     2.1296    -1.0864 H       
  26 H26           -4.5243     1.1813     0.3459 H       
  27 H27           -4.8724     3.6364     0.6881 H       
  28 H28           -3.6658     2.9705     1.8233 H       
  29 H29            2.0766     1.6117    -1.9468 H       
  30 H30            4.7069     3.1093    -2.1469 H       
  31 H31            6.1682     4.6487    -0.9308 H       
  32 H32            5.5393     5.4544     1.3048 H       
  33 H33            3.4388     4.7306     2.3483 H       
@<TRIPOS>BOND
   1    1    2 2
   2    1   11 1
   3    1    6 1
   4    2    3 1
   5    2   22 1
   6    3    4 2
   7    3   23 1
   8    4    5 1
   9    4   24 1
  10    5    6 1
  11    5    7 1
  12    6   10 2
  13    7    8 1
  14    7   25 1
  15    7   26 1
  16    8    9 1
  17    8   27 1
  18    8   28 1
  19    9   10 am
  20    9   12 2
  21    9   13 2
  22   11   14 2
  23   11   17 1
  24   14   15 1
  25   14   29 1
  26   15   16 ar
  27   15   18 ar
  28   16   17 1
  29   16   21 ar
  30   18   19 ar
  31   18   30 1
  32   19   20 ar
  33   19   31 1
  34   20   21 ar
  35   20   32 1
  36   21   33 1

#	End of record

