#	Name: ASD03200038
#	Creating user name:	WinNT
#	Creation time:	15. 06. 2019 20:34

#	Modifying user name:	WinNT
#	Modification time:	15. 06. 2019 20:34

#	Program:	/corina/corina34_cracker 3.40 0067  02.08.2006

@<TRIPOS>MOLECULE
ASD03200038
  56   59    0    0    0
SMALL
NO_CHARGES


@<TRIPOS>ATOM
   1 C1             0.6741    -2.4656    -0.0333 C.3     
   2 N2             0.1946    -1.1383     0.3727 N.3     
   3 C3             0.6897    -0.7805     1.7081 C.3     
   4 C4             2.2188    -0.7217     1.6878 C.3     
   5 C5             2.7716    -2.0861     1.2667 C.3     
   6 C6             2.2027    -2.4570    -0.1056 C.3     
   7 C7            -1.1970    -1.0727     0.3217 C.ar    
   8 C8            -1.9486    -0.9197     1.4842 C.ar    
   9 C9            -3.3243    -0.8585     1.3919 C.ar    
  10 N10           -3.9311    -0.9432     0.2232 N.ar    
  11 C11           -3.2594    -1.0886    -0.9037 C.ar    
  12 C12           -1.8760    -1.1530    -0.9000 C.ar    
  13 N13           -1.1674    -1.3075    -2.0992 N.am    
  14 C14           -1.6928    -2.0371    -3.1032 C.2     
  15 C15           -1.0132    -2.0959    -4.3991 C.2     
  16 O16           -2.7325    -2.6474    -2.9328 O.2     
  17 C17           -1.4973    -2.8217    -5.4628 C.2     
  18 S18           -0.3817    -2.6164    -6.8111 S.3     
  19 C19            0.6341    -1.5735    -5.8223 C.2     
  20 N20            0.1264    -1.4444    -4.6497 N.2     
  21 C21            1.9111    -0.9215    -6.2862 C.3     
  22 N22            2.7145    -0.3844     3.0289 N.3     
  23 N23           -2.6532    -3.5784    -5.4719 N.pl3   
  24 C24            2.9104    -2.0004    -6.7083 C.3     
  25 C25            4.2070    -1.3385    -7.1792 C.3     
  26 C26            3.9098    -0.4247    -8.3698 C.3     
  27 C27            2.9105     0.6542    -7.9477 C.3     
  28 C28            1.6140    -0.0077    -7.4767 C.3     
  29 H29            0.3491    -3.2079     0.6957 H       
  30 H30            0.2656    -2.7154    -1.0125 H       
  31 H31            0.2925     0.1935     1.9938 H       
  32 H32            0.3646    -1.5307     2.4290 H       
  33 H33            2.5443     0.0380     0.9772 H       
  34 H34            3.8590    -2.0365     1.2089 H       
  35 H35            2.4788    -2.8393     1.9981 H       
  36 H36            2.5590    -3.4466    -0.3919 H       
  37 H37            2.5280    -1.7247    -0.8445 H       
  38 H38           -1.4612    -0.8502     2.4455 H       
  39 H39           -3.9130    -0.7399     2.2896 H       
  40 H40           -3.7945    -1.1542    -1.8395 H       
  41 H41           -0.2988    -0.8893    -2.2067 H       
  42 H42            2.3346    -0.3323    -5.4727 H       
  43 H43            3.7224    -0.3396     3.0412 H       
  44 H44            2.3101     0.4798     3.3571 H       
  45 H45           -3.2050    -3.6307    -4.6758 H       
  46 H46           -2.9130    -4.0573    -6.2744 H       
  47 H47            3.1221    -2.6515    -5.8601 H       
  48 H48            2.4870    -2.5896    -7.5217 H       
  49 H49            4.6304    -0.7494    -6.3658 H       
  50 H50            4.9189    -2.1072    -7.4800 H       
  51 H51            4.8335     0.0469    -8.7053 H       
  52 H52            3.4864    -1.0138    -9.1833 H       
  53 H53            3.3339     1.2434    -7.1342 H       
  54 H54            2.6988     1.3053    -8.7959 H       
  55 H55            1.1905    -0.5968    -8.2902 H       
  56 H56            0.9020     0.7610    -7.1760 H       
@<TRIPOS>BOND
   1    1    2 1
   2    1    6 1
   3    1   29 1
   4    1   30 1
   5    2    3 1
   6    2    7 1
   7    3    4 1
   8    3   31 1
   9    3   32 1
  10    4    5 1
  11    4   22 1
  12    4   33 1
  13    5    6 1
  14    5   34 1
  15    5   35 1
  16    6   36 1
  17    6   37 1
  18    7    8 ar
  19    7   12 ar
  20    8    9 ar
  21    8   38 1
  22    9   10 ar
  23    9   39 1
  24   10   11 ar
  25   11   12 ar
  26   11   40 1
  27   12   13 1
  28   13   14 am
  29   13   41 1
  30   14   15 1
  31   14   16 2
  32   15   17 2
  33   15   20 1
  34   17   18 1
  35   17   23 1
  36   18   19 1
  37   19   20 2
  38   19   21 1
  39   21   24 1
  40   21   28 1
  41   21   42 1
  42   22   43 1
  43   22   44 1
  44   23   45 1
  45   23   46 1
  46   24   25 1
  47   24   47 1
  48   24   48 1
  49   25   26 1
  50   25   49 1
  51   25   50 1
  52   26   27 1
  53   26   51 1
  54   26   52 1
  55   27   28 1
  56   27   53 1
  57   27   54 1
  58   28   55 1
  59   28   56 1

#	End of record

