#	Name: ASD01918129
#	Creating user name:	WinNT
#	Creation time:	15. 06. 2019 20:10

#	Modifying user name:	WinNT
#	Modification time:	15. 06. 2019 20:10

#	Program:	/corina/corina34_cracker 3.40 0067  02.08.2006

@<TRIPOS>MOLECULE
ASD01918129
  38   41    0    0    0
SMALL
NO_CHARGES


@<TRIPOS>ATOM
   1 N1             4.8403    -0.3875    -2.1362 N.ar    
   2 C2             5.3039     0.3033    -3.1567 C.ar    
   3 C3             5.1819     1.6940    -3.1901 C.ar    
   4 C4             4.5573     2.3446    -2.1200 C.ar    
   5 C5             4.0844     1.5720    -1.0670 C.ar    
   6 C6             4.2466     0.1938    -1.1119 C.ar    
   7 O7             3.4712     2.1581    -0.0052 O.3     
   8 C8             3.4400     3.5171     0.0440 C.2     
   9 N9             2.1722     5.5203    -0.0223 N.pl3   
  10 C10            2.2524     4.1610    -0.0659 C.2     
  11 C11            4.6362     4.2286     0.2134 C.2     
  12 C12            4.6011     5.6162     0.2633 C.2     
  13 C13            3.3036     6.2822     0.1355 C.2     
  14 C14            5.8364     6.3970     0.4405 C.2     
  15 N15            5.7823     7.7428     0.4865 N.am    
  16 O16            6.9061     5.8274     0.5454 O.2     
  17 C17            1.1400     6.4049    -0.1049 C.2     
  18 N18            1.6451     7.6071    -0.0100 N.2     
  19 N19            2.9219     7.5439     0.1390 N.2     
  20 C20            5.6882     2.4423    -4.3011 C.1     
  21 C21            6.9349     8.4779     0.7596 C.ar    
  22 N22            8.0987     7.8564     0.8653 N.ar    
  23 C23            6.8514     9.8570     0.9124 C.ar    
  24 C24            8.0027    10.5757     1.1828 C.ar    
  25 C25            9.2043     9.8859     1.2916 C.ar    
  26 C26            9.2136     8.5131     1.1223 C.ar    
  27 F27           10.3514    10.5495     1.5543 F       
  28 N28            6.0898     3.0359    -5.1825 N.1     
  29 H29            5.7839    -0.2109    -3.9762 H       
  30 H30            4.4463     3.4188    -2.1129 H       
  31 H31            3.8810    -0.4115    -0.2956 H       
  32 H32            1.3487     3.5831    -0.1915 H       
  33 H33            5.5753     3.7030     0.3045 H       
  34 H34            4.9413     8.2000     0.3296 H       
  35 H35            0.0963     6.1587    -0.2330 H       
  36 H36            5.9006    10.3610     0.8210 H       
  37 H37            7.9683    11.6481     1.3062 H       
  38 H38           10.1450     7.9722     1.2019 H       
@<TRIPOS>BOND
   1    1    2 ar
   2    1    6 ar
   3    2    3 ar
   4    2   29 1
   5    3    4 ar
   6    3   20 1
   7    4    5 ar
   8    4   30 1
   9    5    6 ar
  10    5    7 1
  11    6   31 1
  12    7    8 1
  13    8   11 1
  14    8   10 2
  15    9   10 1
  16    9   17 1
  17    9   13 1
  18   10   32 1
  19   11   12 2
  20   11   33 1
  21   12   13 1
  22   12   14 1
  23   13   19 2
  24   14   15 am
  25   14   16 2
  26   15   21 1
  27   15   34 1
  28   17   18 2
  29   17   35 1
  30   18   19 1
  31   20   28 3
  32   21   23 ar
  33   21   22 ar
  34   22   26 ar
  35   23   24 ar
  36   23   36 1
  37   24   25 ar
  38   24   37 1
  39   25   26 ar
  40   25   27 1
  41   26   38 1

#	End of record

