#	Name: ASD01150135
#	Creating user name:	WinNT
#	Creation time:	15. 06. 2019 19:03

#	Modifying user name:	WinNT
#	Modification time:	15. 06. 2019 19:03

#	Program:	/corina/corina34_cracker 3.40 0067  02.08.2006

@<TRIPOS>MOLECULE
ASD01150135
  61   63    0    0    0
SMALL
NO_CHARGES


@<TRIPOS>ATOM
   1 N1            -0.0166     1.3763     0.0096 N.pl3   
   2 C2             0.0021    -0.0041     0.0020 C.2     
   3 C3            -1.3262    -0.4109     0.0125 C.2     
   4 N4            -2.0781     0.6927     0.0256 N.2     
   5 C5            -1.3102     1.7524     0.0299 C.2     
   6 C6             1.0206    -0.9813    -0.0125 C.2     
   7 N7             0.6807    -2.2871    -0.0159 N.am    
   8 C8            -0.6087    -2.6667    -0.0061 C.2     
   9 N9            -1.6103    -1.7670     0.0083 N.am    
  10 O10            2.1925    -0.6496    -0.0223 O.2     
  11 C11           -3.0026    -2.2226     0.0187 C.3     
  12 O12           -0.8774    -3.8526    -0.0100 O.2     
  13 C13            1.7328    -3.3064    -0.0310 C.3     
  14 C14            2.1070    -3.6631     1.3845 C.ar    
  15 C15            1.4454    -4.6866     2.0371 C.ar    
  16 C16            1.7881    -5.0142     3.3353 C.ar    
  17 C17            2.7936    -4.3176     3.9819 C.ar    
  18 C18            3.4553    -3.2933     3.3283 C.ar    
  19 C19            3.1155    -2.9704     2.0281 C.ar    
  20 Cl20           3.2242    -4.7281     5.6127 Cl      
  21 C21           -1.7991     3.1779     0.0446 C.3     
  22 C22           -1.9566     3.6481     1.4920 C.3     
  23 C23            1.1490     2.2638     0.0032 C.3     
  24 C24           -3.4739    -2.3894     1.4647 C.3     
  25 C25           -4.9279    -2.8653     1.4755 C.3     
  26 S26           -5.4867    -3.0631     3.1899 S.o2    
  27 C27           -7.1980    -3.6210     2.9643 C.3     
  28 C28           -7.2072    -4.9316     2.1749 C.3     
  29 C29           -7.8459    -3.8449     4.3321 C.3     
  30 C30           -7.9841    -2.5570     2.1956 C.3     
  31 O31           -4.7430    -4.1148     3.7900 O.2     
  32 O32           -5.5053    -1.7848     3.8104 O.2     
  33 H33           -3.6294    -1.4868    -0.4852 H       
  34 H34           -3.0759    -3.1785    -0.4999 H       
  35 H35            1.3696    -4.1958    -0.5459 H       
  36 H36            2.6081    -2.9174    -0.5512 H       
  37 H37            0.6603    -5.2301     1.5324 H       
  38 H38            1.2710    -5.8136     3.8452 H       
  39 H39            4.2402    -2.7492     3.8325 H       
  40 H40            3.6320    -2.1709     1.5178 H       
  41 H41           -1.0779     3.8146    -0.4679 H       
  42 H42           -2.7616     3.2371    -0.4635 H       
  43 H43           -2.6777     3.0114     2.0044 H       
  44 H44           -0.9941     3.5888     2.0001 H       
  45 H45           -2.3101     4.6791     1.5026 H       
  46 H46            1.4282     2.4894    -1.0259 H       
  47 H47            0.9039     3.1892     0.5244 H       
  48 H48            1.9820     1.7730     0.5065 H       
  49 H49           -2.8470    -3.1252     1.9685 H       
  50 H50           -3.4005    -1.4335     1.9833 H       
  51 H51           -5.5548    -2.1295     0.9717 H       
  52 H52           -5.0013    -3.8212     0.9569 H       
  53 H53           -6.6471    -5.6896     2.7225 H       
  54 H54           -8.2355    -5.2668     2.0393 H       
  55 H55           -6.7456    -4.7720     1.2004 H       
  56 H56           -7.8393    -2.9113     4.8945 H       
  57 H57           -8.8742    -4.1802     4.1966 H       
  58 H58           -7.2858    -4.6029     4.8798 H       
  59 H59           -7.5225    -2.3975     1.2212 H       
  60 H60           -9.0124    -2.8923     2.0601 H       
  61 H61           -7.9775    -1.6234     2.7580 H       
@<TRIPOS>BOND
   1    1    2 1
   2    1   23 1
   3    1    5 1
   4    2    3 2
   5    2    6 1
   6    3    4 1
   7    3    9 1
   8    4    5 2
   9    5   21 1
  10    6    7 am
  11    6   10 2
  12    7    8 am
  13    7   13 1
  14    8    9 am
  15    8   12 2
  16    9   11 1
  17   11   24 1
  18   11   33 1
  19   11   34 1
  20   13   14 1
  21   13   35 1
  22   13   36 1
  23   14   15 ar
  24   14   19 ar
  25   15   16 ar
  26   15   37 1
  27   16   17 ar
  28   16   38 1
  29   17   18 ar
  30   17   20 1
  31   18   19 ar
  32   18   39 1
  33   19   40 1
  34   21   22 1
  35   21   41 1
  36   21   42 1
  37   22   43 1
  38   22   44 1
  39   22   45 1
  40   23   46 1
  41   23   47 1
  42   23   48 1
  43   24   25 1
  44   24   49 1
  45   24   50 1
  46   25   26 1
  47   25   51 1
  48   25   52 1
  49   26   27 1
  50   26   31 2
  51   26   32 2
  52   27   28 1
  53   27   29 1
  54   27   30 1
  55   28   53 1
  56   28   54 1
  57   28   55 1
  58   29   56 1
  59   29   57 1
  60   29   58 1
  61   30   59 1
  62   30   60 1
  63   30   61 1

#	End of record

