#	Name: ASD01230853
#	Creating user name:	WinNT
#	Creation time:	15. 06. 2019 19:15

#	Modifying user name:	WinNT
#	Modification time:	15. 06. 2019 19:15

#	Program:	/corina/corina34_cracker 3.40 0067  02.08.2006

@<TRIPOS>MOLECULE
ASD01230853
  54   57    0    0    0
SMALL
NO_CHARGES


@<TRIPOS>ATOM
   1 C1            -0.2224     3.0960    -1.2943 C.3     
   2 C2            -0.7309     1.6936    -0.9496 C.3     
   3 C3            -2.2170     1.5569    -1.2494 C.3     
   4 C4            -2.6774     2.4783    -2.3704 C.3     
   5 N5            -1.5852     2.7720    -3.3010 N.pl3   
   6 C6            -0.4251     3.2908    -2.7872 C.2     
   7 C7            -1.7241     2.4841    -4.7264 C.3     
   8 C8            -1.3707     3.7330    -5.5356 C.3     
   9 S9             0.2840     4.3039    -5.0669 S.o2    
  10 N10            0.4380     3.9359    -3.4690 N.am    
  11 C11            1.2418     3.2090    -0.9558 C.ar    
  12 O12            1.2796     3.5138    -5.7023 O.2     
  13 O13            0.3479     5.7230    -5.1039 O.2     
  14 C14            1.6672     4.1519    -0.0383 C.ar    
  15 C15            3.0087     4.2575     0.2737 C.ar    
  16 C16            3.9295     3.4160    -0.3341 C.ar    
  17 C17            3.4998     2.4703    -1.2541 C.ar    
  18 C18            2.1566     2.3657    -1.5590 C.ar    
  19 O19            5.2498     3.5181    -0.0292 O.3     
  20 C20            5.6123     4.3828     0.9544 C.ar    
  21 C21            5.6535     3.9564     2.2744 C.ar    
  22 C22            6.0228     4.8372     3.2721 C.ar    
  23 C23            6.3509     6.1431     2.9568 C.ar    
  24 C24            6.3108     6.5704     1.6426 C.ar    
  25 C25            5.9475     5.6919     0.6400 C.ar    
  26 C26            6.0677     4.3749     4.7058 C.3     
  27 C27            7.4875     4.5412     5.2510 C.3     
  28 C28            5.0987     5.2127     5.5424 C.3     
  29 H29           -0.7902     3.8436    -0.7404 H       
  30 H30           -0.1792     0.9593    -1.5365 H       
  31 H31           -0.5613     1.5026     0.1101 H       
  32 H32           -2.4253     0.5255    -1.5336 H       
  33 H33           -2.7812     1.7918    -0.3468 H       
  34 H34           -3.4909     1.9988    -2.9149 H       
  35 H35           -3.0395     3.4116    -1.9392 H       
  36 H36           -1.0512     1.6714    -5.0001 H       
  37 H37           -2.7523     2.1919    -4.9395 H       
  38 H38           -1.3852     3.4936    -6.5989 H       
  39 H39           -2.0982     4.5180    -5.3292 H       
  40 H40            0.9501     4.8066     0.4344 H       
  41 H41            3.3406     4.9946     0.9899 H       
  42 H42            4.2145     1.8142    -1.7286 H       
  43 H43            1.8216     1.6295    -2.2747 H       
  44 H44            5.3966     2.9369     2.5213 H       
  45 H45            6.6388     6.8304     3.7385 H       
  46 H46            6.5675     7.5907     1.3989 H       
  47 H47            5.9163     6.0262    -0.3864 H       
  48 H48            5.7789     3.3251     4.7582 H       
  49 H49            7.7762     5.5909     5.1986 H       
  50 H50            7.5200     4.2068     6.2880 H       
  51 H51            8.1778     3.9443     4.6550 H       
  52 H52            4.0872     5.0943     5.1539 H       
  53 H53            5.1311     4.8784     6.5793 H       
  54 H54            5.3874     6.2625     5.4899 H       
@<TRIPOS>BOND
   1    1    2 1
   2    1   11 1
   3    1    6 1
   4    1   29 1
   5    2    3 1
   6    2   30 1
   7    2   31 1
   8    3    4 1
   9    3   32 1
  10    3   33 1
  11    4    5 1
  12    4   34 1
  13    4   35 1
  14    5    6 1
  15    5    7 1
  16    6   10 2
  17    7    8 1
  18    7   36 1
  19    7   37 1
  20    8    9 1
  21    8   38 1
  22    8   39 1
  23    9   10 am
  24    9   12 2
  25    9   13 2
  26   11   14 ar
  27   11   18 ar
  28   14   15 ar
  29   14   40 1
  30   15   16 ar
  31   15   41 1
  32   16   17 ar
  33   16   19 1
  34   17   18 ar
  35   17   42 1
  36   18   43 1
  37   19   20 1
  38   20   21 ar
  39   20   25 ar
  40   21   22 ar
  41   21   44 1
  42   22   23 ar
  43   22   26 1
  44   23   24 ar
  45   23   45 1
  46   24   25 ar
  47   24   46 1
  48   25   47 1
  49   26   27 1
  50   26   28 1
  51   26   48 1
  52   27   49 1
  53   27   50 1
  54   27   51 1
  55   28   52 1
  56   28   53 1
  57   28   54 1

#	End of record

