#	Name: ASD01913161
#	Creating user name:	WinNT
#	Creation time:	15. 06. 2019 20:01

#	Modifying user name:	WinNT
#	Modification time:	15. 06. 2019 20:01

#	Program:	/corina/corina34_cracker 3.40 0067  02.08.2006

@<TRIPOS>MOLECULE
ASD01913161
  46   48    0    0    0
SMALL
NO_CHARGES


@<TRIPOS>ATOM
   1 C1             0.0508     1.1621     0.0709 C.ar    
   2 C2             0.0387    -0.2249     0.0945 C.ar    
   3 C3            -1.1585    -0.9061     0.1020 C.ar    
   4 C4            -2.3642    -0.1959     0.0859 C.ar    
   5 C5            -2.3448     1.2032     0.0621 C.ar    
   6 C6            -1.1407     1.8722     0.0606 C.ar    
   7 C7            -3.6456    -0.9165     0.0934 C.2     
   8 C8            -4.9421    -0.1484     0.0759 C.3     
   9 C9            -6.1162    -1.1294     0.0881 C.3     
  10 C10           -7.4127    -0.3613     0.0707 C.2     
  11 N11           -8.5874    -1.0219     0.0775 N.am    
  12 C12           -9.8641    -0.2918     0.0608 C.3     
  13 C13          -10.7348    -0.8596    -1.0651 C.3     
  14 N14          -10.8534    -2.3147    -0.9017 N.3     
  15 C15           -9.5461    -2.9731    -1.0256 C.3     
  16 C16           -8.6267    -2.4920     0.0958 C.3     
  17 O17           -7.3989     0.8513     0.0505 O.2     
  18 C18          -11.7708    -2.8477    -1.8113 C.ar    
  19 C19          -11.3359    -3.6919    -2.8243 C.ar    
  20 C20          -12.2448    -4.2179    -3.7221 C.ar    
  21 C21          -13.5869    -3.9052    -3.6135 C.ar    
  22 C22          -14.0253    -3.0636    -2.6056 C.ar    
  23 C23          -13.1214    -2.5384    -1.7004 C.ar    
  24 Cl24         -13.6708    -1.4835    -0.4359 Cl      
  25 F25            1.2284     1.8242     0.0636 F       
  26 O26           -3.6594    -2.1290     0.1135 O.2     
  27 Cl27         -15.7116    -2.6728    -2.4739 Cl      
  28 H28            0.9699    -0.7717     0.1066 H       
  29 H29           -1.1666    -1.9859     0.1200 H       
  30 H30           -3.2718     1.7571     0.0496 H       
  31 H31           -1.1243     2.9520     0.0426 H       
  32 H32           -4.9959     0.4936     0.9551 H       
  33 H33           -4.9896     0.4639    -0.8246 H       
  34 H34           -6.0624    -1.7714    -0.7911 H       
  35 H35           -6.0687    -1.7417     0.9886 H       
  36 H36          -10.3720    -0.4203     1.0166 H       
  37 H37           -9.6781     0.7671    -0.1188 H       
  38 H38          -11.7254    -0.4069    -1.0224 H       
  39 H39          -10.2744    -0.6381    -2.0280 H       
  40 H40           -9.6747    -4.0532    -0.9542 H       
  41 H41           -9.1023    -2.7221    -1.9890 H       
  42 H42           -7.6231    -2.8886    -0.0581 H       
  43 H43           -9.0137    -2.8301     1.0570 H       
  44 H44          -10.2876    -3.9369    -2.9106 H       
  45 H45          -11.9062    -4.8742    -4.5101 H       
  46 H46          -14.2950    -4.3180    -4.3168 H       
@<TRIPOS>BOND
   1    1    2 ar
   2    1   25 1
   3    1    6 ar
   4    2    3 ar
   5    2   28 1
   6    3    4 ar
   7    3   29 1
   8    4    5 ar
   9    4    7 1
  10    5    6 ar
  11    5   30 1
  12    6   31 1
  13    7    8 1
  14    7   26 2
  15    8    9 1
  16    8   32 1
  17    8   33 1
  18    9   10 1
  19    9   34 1
  20    9   35 1
  21   10   11 am
  22   10   17 2
  23   11   12 1
  24   11   16 1
  25   12   13 1
  26   12   36 1
  27   12   37 1
  28   13   14 1
  29   13   38 1
  30   13   39 1
  31   14   15 1
  32   14   18 1
  33   15   16 1
  34   15   40 1
  35   15   41 1
  36   16   42 1
  37   16   43 1
  38   18   19 ar
  39   18   23 ar
  40   19   20 ar
  41   19   44 1
  42   20   21 ar
  43   20   45 1
  44   21   22 ar
  45   21   46 1
  46   22   23 ar
  47   22   27 1
  48   23   24 1

#	End of record

