#	Name: ASD01410805
#	Creating user name:	WinNT
#	Creation time:	15. 06. 2019 19:18

#	Modifying user name:	WinNT
#	Modification time:	15. 06. 2019 19:18

#	Program:	/corina/corina34_cracker 3.40 0067  02.08.2006

@<TRIPOS>MOLECULE
ASD01410805
  37   37    0    0    0
SMALL
NO_CHARGES


@<TRIPOS>ATOM
   1 C1             0.1109     0.4624     0.2141 C.2     
   2 C2             0.1876    -1.0411     0.1472 C.3     
   3 C3             1.2954     1.2695    -0.0825 C.ar    
   4 C4             1.1939     2.6723    -0.1663 C.ar    
   5 C5             2.3244     3.4240    -0.4481 C.ar    
   6 C6             3.5432     2.7927    -0.6449 C.ar    
   7 C7             3.6394     1.4054    -0.5616 C.ar    
   8 C8             2.5381     0.6516    -0.2791 C.ar    
   9 C9             2.2285     4.9251    -0.5409 C.3     
  10 O10            4.6482     3.5301    -0.9205 O.3     
  11 C11            5.8722     2.8181    -1.1123 C.3     
  12 C12            6.9980     3.8102    -1.4110 C.3     
  13 O13            6.6836     4.5448    -2.5957 O.3     
  14 C14            7.7949     5.2467    -3.1564 C.3     
  15 O15            7.1398     4.7142    -0.3134 O.3     
  16 C16            8.4425     5.2904    -0.1997 C.3     
  17 N17           -0.0288     3.2971     0.0312 N.pl3   
  18 O18           -0.9342     1.0042     0.5090 O.2     
  19 H19            0.9342    -1.3988     0.8562 H       
  20 H20           -0.7844    -1.4660     0.3979 H       
  21 H21            0.4683    -1.3461    -0.8609 H       
  22 H22            4.5935     0.9238    -0.7170 H       
  23 H23            2.6228    -0.4230    -0.2116 H       
  24 H24            2.4061     5.3619     0.4419 H       
  25 H25            2.9761     5.2942    -1.2430 H       
  26 H26            1.2341     5.2048    -0.8885 H       
  27 H27            6.1120     2.2577    -0.2087 H       
  28 H28            5.7640     2.1285    -1.9495 H       
  29 H29            7.9316     3.2670    -1.5573 H       
  30 H30            7.5576     5.5467    -4.1771 H       
  31 H31            8.0051     6.1325    -2.5570 H       
  32 H32            8.6696     4.5963    -3.1629 H       
  33 H33            8.6980     5.7976    -1.1300 H       
  34 H34            8.4518     6.0087     0.6201 H       
  35 H35            9.1715     4.5044    -0.0023 H       
  36 H36           -0.8531     2.8147    -0.1386 H       
  37 H37           -0.0596     4.2164     0.3393 H       
@<TRIPOS>BOND
   1    1    2 1
   2    1    3 1
   3    1   18 2
   4    2   19 1
   5    2   20 1
   6    2   21 1
   7    3    4 ar
   8    3    8 ar
   9    4    5 ar
  10    4   17 1
  11    5    6 ar
  12    5    9 1
  13    6    7 ar
  14    6   10 1
  15    7    8 ar
  16    7   22 1
  17    8   23 1
  18    9   24 1
  19    9   25 1
  20    9   26 1
  21   10   11 1
  22   11   12 1
  23   11   27 1
  24   11   28 1
  25   12   13 1
  26   12   15 1
  27   12   29 1
  28   13   14 1
  29   14   30 1
  30   14   31 1
  31   14   32 1
  32   15   16 1
  33   16   33 1
  34   16   34 1
  35   16   35 1
  36   17   36 1
  37   17   37 1

#	End of record

