#	Name: ASD01917115
#	Creating user name:	WinNT
#	Creation time:	15. 06. 2019 20:08

#	Modifying user name:	WinNT
#	Modification time:	15. 06. 2019 20:08

#	Program:	/corina/corina34_cracker 3.40 0067  02.08.2006

@<TRIPOS>MOLECULE
ASD01917115
  33   35    0    0    0
SMALL
NO_CHARGES


@<TRIPOS>ATOM
   1 C1            -0.0423     1.4706     0.1506 C.ar    
   2 C2            -0.0084    -0.0060     0.0630 C.2     
   3 N3             1.0562    -0.7653     0.2103 N.2     
   4 C4             0.7166    -2.0513     0.0662 C.2     
   5 N5            -0.5744    -2.1279    -0.1758 N.2     
   6 N6            -1.0683    -0.8134    -0.1770 N.pl3   
   7 C7            -2.4547    -0.3973    -0.4030 C.3     
   8 C8            -3.1974    -0.3910     0.9083 C.2     
   9 O9            -4.4924    -0.0398     0.9445 O.3     
  10 O10           -2.6271    -0.7021     1.9271 O.2     
  11 C11            1.6454    -3.2043     0.1631 C.ar    
  12 C12            2.9954    -2.9828     0.4252 C.ar    
  13 C13            3.8508    -4.0673     0.5129 C.ar    
  14 C14            3.3260    -5.3415     0.3351 C.ar    
  15 C15            1.9727    -5.4877     0.0772 C.ar    
  16 N16            1.1815    -4.4371     0.0046 N.ar    
  17 F17            4.1272    -6.4265     0.4124 F       
  18 C18           -1.2477     2.1299     0.3935 C.ar    
  19 C19           -1.2740     3.5064     0.4742 C.ar    
  20 C20           -0.1057     4.2347     0.3145 C.ar    
  21 C21            1.0941     3.5846     0.0726 C.ar    
  22 C22            1.1320     2.2080    -0.0036 C.ar    
  23 F23           -0.1367     5.5830     0.3945 F       
  24 H24           -2.4680     0.6042    -0.8329 H       
  25 H25           -2.9358    -1.0939    -1.0896 H       
  26 H26           -4.9263    -0.0509     1.8086 H       
  27 H27            3.3696    -1.9784     0.5578 H       
  28 H28            4.9024    -3.9263     0.7147 H       
  29 H29            1.5602    -6.4761    -0.0617 H       
  30 H30           -2.1587     1.5632     0.5177 H       
  31 H31           -2.2066     4.0177     0.6619 H       
  32 H32            2.0017     4.1566    -0.0514 H       
  33 H33            2.0675     1.7023    -0.1918 H       
@<TRIPOS>BOND
   1    1    2 1
   2    1   18 ar
   3    1   22 ar
   4    2    3 2
   5    2    6 1
   6    3    4 1
   7    4    5 2
   8    4   11 1
   9    5    6 1
  10    6    7 1
  11    7    8 1
  12    7   24 1
  13    7   25 1
  14    8    9 1
  15    8   10 2
  16    9   26 1
  17   11   12 ar
  18   11   16 ar
  19   12   13 ar
  20   12   27 1
  21   13   14 ar
  22   13   28 1
  23   14   15 ar
  24   14   17 1
  25   15   16 ar
  26   15   29 1
  27   18   19 ar
  28   18   30 1
  29   19   20 ar
  30   19   31 1
  31   20   21 ar
  32   20   23 1
  33   21   22 ar
  34   21   32 1
  35   22   33 1

#	End of record

