#	Name: ASD05380328
#	Creating user name:	WinNT
#	Creation time:	15. 06. 2019 20:59

#	Modifying user name:	WinNT
#	Modification time:	15. 06. 2019 20:59

#	Program:	/corina/corina34_cracker 3.40 0067  02.08.2006

@<TRIPOS>MOLECULE
ASD05380328
  54   58    0    0    0
SMALL
NO_CHARGES


@<TRIPOS>ATOM
   1 N1            -0.4973     1.6670    -0.3999 N.ar    
   2 C2            -0.2332     0.3606    -0.4231 C.ar    
   3 C3             1.0851    -0.0608    -0.5921 C.ar    
   4 C4             2.0766     0.9067    -0.7305 C.ar    
   5 N5             1.7365     2.1917    -0.6972 N.ar    
   6 C6             0.4736     2.5566    -0.5349 C.ar    
   7 N7             3.4056     0.5341    -0.9009 N.am    
   8 C8             3.8941    -0.8445    -1.0575 C.3     
   9 C9             4.4493     1.3727    -0.9550 C.2     
  10 O10            5.6266     0.7610    -1.1258 O.3     
  11 C11            5.4186    -0.6787    -1.2081 C.3     
  12 C12            5.8768    -1.2031    -2.5445 C.2     
  13 O13            4.3366     2.5786    -0.8581 O.2     
  14 N14            0.1605     3.9045    -0.5062 N.3     
  15 C15           -1.2914     4.1059    -0.3932 C.3     
  16 C16            0.6914     4.5941    -1.6911 C.3     
  17 C17            0.3751     6.0886    -1.5896 C.3     
  18 O18           -1.0374     6.2633    -1.4490 O.3     
  19 C19           -1.5878     5.6053    -0.3047 C.3     
  20 C20           -1.3253    -0.6299    -0.2708 C.ar    
  21 C21           -2.2258    -0.5457     0.7951 C.ar    
  22 N22           -3.1857    -1.4474     0.8964 N.ar    
  23 C23           -3.3007    -2.4215     0.0047 C.ar    
  24 N24           -2.4665    -2.5349    -1.0196 N.ar    
  25 C25           -1.4846    -1.6689    -1.1929 C.ar    
  26 C26           -2.1029     0.5577     1.8142 C.3     
  27 F27           -2.4797     1.7733     1.2331 F       
  28 F28           -2.9378     0.2824     2.9025 F       
  29 F29           -0.7772     0.6417     2.2530 F       
  30 N30           -4.3188    -3.3454     0.1470 N.pl3   
  31 C31            3.2970    -1.4872    -2.3110 C.3     
  32 N32            6.5640    -2.2813    -2.7186 N.2     
  33 C33            6.8822    -2.5974    -3.9577 C.2     
  34 C34            6.4389    -1.7381    -4.8802 C.2     
  35 S35            5.5552    -0.4595    -4.0501 S.3     
  36 H36            1.3312    -1.1122    -0.6148 H       
  37 H37            3.6566    -1.4376    -0.1743 H       
  38 H38            5.9408    -1.1871    -0.3975 H       
  39 H39           -1.7861     3.6882    -1.2700 H       
  40 H40           -1.6590     3.6086     0.5044 H       
  41 H41            1.7711     4.4531    -1.7409 H       
  42 H42            0.2283     4.1842    -2.5887 H       
  43 H43            0.8821     6.5098    -0.7215 H       
  44 H44            0.7164     6.5950    -2.4925 H       
  45 H45           -2.6661     5.7622    -0.2783 H       
  46 H46           -1.1378     6.0125     0.6008 H       
  47 H47           -0.8087    -1.7672    -2.0295 H       
  48 H48           -4.9366    -3.2755     0.8915 H       
  49 H49           -4.4155    -4.0637    -0.4977 H       
  50 H50            3.5636    -0.8938    -3.1857 H       
  51 H51            3.6901    -2.4975    -2.4238 H       
  52 H52            2.2118    -1.5280    -2.2167 H       
  53 H53            7.4547    -3.4785    -4.2073 H       
  54 H54            6.5919    -1.8156    -5.9465 H       
@<TRIPOS>BOND
   1    1    2 ar
   2    1    6 ar
   3    2    3 ar
   4    2   20 1
   5    3    4 ar
   6    3   36 1
   7    4    5 ar
   8    4    7 1
   9    5    6 ar
  10    6   14 1
  11    7    8 1
  12    7    9 am
  13    8   31 1
  14    8   11 1
  15    8   37 1
  16    9   10 1
  17    9   13 2
  18   10   11 1
  19   11   12 1
  20   11   38 1
  21   12   32 2
  22   12   35 1
  23   14   15 1
  24   14   16 1
  25   15   19 1
  26   15   39 1
  27   15   40 1
  28   16   17 1
  29   16   41 1
  30   16   42 1
  31   17   18 1
  32   17   43 1
  33   17   44 1
  34   18   19 1
  35   19   45 1
  36   19   46 1
  37   20   21 ar
  38   20   25 ar
  39   21   22 ar
  40   21   26 1
  41   22   23 ar
  42   23   24 ar
  43   23   30 1
  44   24   25 ar
  45   25   47 1
  46   26   27 1
  47   26   28 1
  48   26   29 1
  49   30   48 1
  50   30   49 1
  51   31   50 1
  52   31   51 1
  53   31   52 1
  54   32   33 1
  55   33   34 2
  56   33   53 1
  57   34   35 1
  58   34   54 1

#	End of record

