#	Name: ASD02039256
#	Creating user name:	WinNT
#	Creation time:	15. 06. 2019 20:17

#	Modifying user name:	WinNT
#	Modification time:	15. 06. 2019 20:17

#	Program:	/corina/corina34_cracker 3.40 0067  02.08.2006

@<TRIPOS>MOLECULE
ASD02039256
  43   46    0    0    0
SMALL
NO_CHARGES


@<TRIPOS>ATOM
   1 N1            -0.0160     1.3036    -0.0273 N.2     
   2 C2             0.0019    -0.0039    -0.0000 C.2     
   3 C3             1.3717    -0.3810     0.0198 C.2     
   4 C4             2.0347     0.7972     0.0012 C.2     
   5 O5             1.1031     1.7614    -0.0270 O.3     
   6 N6            -1.0994    -0.8549     0.0080 N.pl3   
   7 C7            -0.9164    -2.2357    -0.1067 C.ar    
   8 C8             0.1060    -2.7388    -0.9018 C.ar    
   9 C9             0.2849    -4.1035    -1.0129 C.ar    
  10 C10           -0.5525    -4.9700    -0.3344 C.ar    
  11 C11           -1.5719    -4.4729     0.4585 C.ar    
  12 C12           -1.7525    -3.1076     0.5783 C.ar    
  13 O13            4.0146     1.0217    -1.3324 O.3     
  14 C14            5.3531     1.1899    -1.5015 C.ar    
  15 C15            6.1809     1.3212    -0.3893 C.ar    
  16 C16            7.5393     1.4919    -0.5414 C.ar    
  17 C17            8.0958     1.5344    -1.8152 C.ar    
  18 C18            7.2627     1.4021    -2.9422 C.ar    
  19 C19            5.8857     1.2241    -2.7747 C.ar    
  20 C20            3.5294     0.9895     0.0113 C.3     
  21 C21           -0.3547    -6.4588    -0.4590 C.3     
  22 N22            9.4543     1.7057    -1.9887 N.am    
  23 C23            9.9945     1.7481    -3.2190 C.2     
  24 C24            9.2029     1.6208    -4.3804 C.2     
  25 C25            7.8618     1.4498    -4.2774 C.2     
  26 O26           11.1984     1.9007    -3.3344 O.2     
  27 F27            0.7278    -6.7160    -1.3072 F       
  28 Cl28          -2.6210    -5.5645     1.3080 Cl      
  29 F29           -0.0969    -7.0023     0.8040 F       
  30 F30           -1.5113    -7.0401    -0.9896 F       
  31 H31            1.7870    -1.3777     0.0445 H       
  32 H32           -1.9939    -0.4896     0.0931 H       
  33 H33            0.7600    -2.0630    -1.4327 H       
  34 H34            1.0795    -4.4946    -1.6309 H       
  35 H35           -2.5479    -2.7196     1.1974 H       
  36 H36            5.7536     1.2892     0.6021 H       
  37 H37            8.1719     1.5930     0.3281 H       
  38 H38            5.2422     1.1217    -3.6360 H       
  39 H39            3.7714     1.9292     0.5077 H       
  40 H40            3.9982     0.1642     0.5472 H       
  41 H41           10.0276     1.7971    -1.2116 H       
  42 H42            9.6671     1.6594    -5.3548 H       
  43 H43            7.2487     1.3508    -5.1610 H       
@<TRIPOS>BOND
   1    1    2 2
   2    1    5 1
   3    2    3 1
   4    2    6 1
   5    3    4 2
   6    3   31 1
   7    4    5 1
   8    4   20 1
   9    6    7 1
  10    6   32 1
  11    7    8 ar
  12    7   12 ar
  13    8    9 ar
  14    8   33 1
  15    9   10 ar
  16    9   34 1
  17   10   11 ar
  18   10   21 1
  19   11   12 ar
  20   11   28 1
  21   12   35 1
  22   13   14 1
  23   13   20 1
  24   14   15 ar
  25   14   19 ar
  26   15   16 ar
  27   15   36 1
  28   16   17 ar
  29   16   37 1
  30   17   18 ar
  31   17   22 1
  32   18   19 ar
  33   18   25 1
  34   19   38 1
  35   20   39 1
  36   20   40 1
  37   21   27 1
  38   21   29 1
  39   21   30 1
  40   22   23 am
  41   22   41 1
  42   23   24 1
  43   23   26 2
  44   24   25 2
  45   24   42 1
  46   25   43 1

#	End of record

