#	Name: ASD01811427
#	Creating user name:	WinNT
#	Creation time:	15. 06. 2019 19:26

#	Modifying user name:	WinNT
#	Modification time:	15. 06. 2019 19:26

#	Program:	/corina/corina34_cracker 3.40 0067  02.08.2006

@<TRIPOS>MOLECULE
ASD01811427
  58   61    0    0    0
SMALL
NO_CHARGES


@<TRIPOS>ATOM
   1 N1            -0.0162     1.3436     0.0094 N.am    
   2 C2            -0.2168     0.1141    -0.5051 C.2     
   3 O3             0.6699    -0.4358    -1.1294 O.2     
   4 N4            -1.4004    -0.5057    -0.3276 N.am    
   5 C5            -1.6184    -1.8421    -0.8869 C.3     
   6 C6            -3.0331    -2.3137    -0.5443 C.3     
   7 O7            -3.9866    -1.4714    -1.1949 O.3     
   8 C8            -5.3467    -1.8277    -0.9393 C.3     
   9 C9             1.2487     1.9376    -0.0700 C.ar    
  10 C10            1.3616     3.3145    -0.2216 C.ar    
  11 C11            2.6083     3.9055    -0.3010 C.ar    
  12 C12            3.7495     3.1322    -0.2297 C.ar    
  13 C13            3.6465     1.7491    -0.0770 C.ar    
  14 C14            2.3888     1.1533     0.0083 C.ar    
  15 C15            0.1204     4.1657    -0.3003 C.3     
  16 C16            6.9287     0.2485     0.2064 C.2     
  17 C17            8.4229     0.2788     0.4102 C.3     
  18 C18            8.9002     1.7256     0.2257 C.3     
  19 C19            8.0152     2.6614     1.0540 C.3     
  20 C20            6.6126     2.7225     0.4373 C.3     
  21 N21            6.1361     1.3573     0.2208 N.pl3   
  22 N22            4.9384    -0.3909    -0.1361 N.2     
  23 N23            6.1618    -0.7770    -0.0137 N.2     
  24 C24            4.8681     0.9179    -0.0003 C.2     
  25 C25           10.3297     1.8462     0.6873 C.ar    
  26 C26           11.3083     2.2537    -0.2019 C.ar    
  27 C27           12.6188     2.3662     0.2138 C.ar    
  28 C28           12.9566     2.0682     1.5355 C.ar    
  29 C29           11.9638     1.6580     2.4276 C.ar    
  30 C30           10.6565     1.5544     1.9997 C.ar    
  31 C31           14.3150     2.1824     1.9739 C.1     
  32 N32           15.3927     2.2729     2.3218 N.1     
  33 H33           -0.7494     1.8184     0.4312 H       
  34 H34           -2.1077    -0.0671     0.1704 H       
  35 H35           -1.4996    -1.8066    -1.9698 H       
  36 H36           -0.8918    -2.5359    -0.4642 H       
  37 H37           -3.1654    -3.3413    -0.8828 H       
  38 H38           -3.1812    -2.2646     0.5344 H       
  39 H39           -5.5270    -2.8452    -1.2860 H       
  40 H40           -5.5428    -1.7684     0.1312 H       
  41 H41           -6.0077    -1.1411    -1.4683 H       
  42 H42            2.6900     4.9759    -0.4195 H       
  43 H43            4.7220     3.5976    -0.2924 H       
  44 H44            2.3031     0.0837     0.1310 H       
  45 H45           -0.1670     4.4824     0.7023 H       
  46 H46            0.3201     5.0432    -0.9153 H       
  47 H47           -0.6894     3.5871    -0.7447 H       
  48 H48            8.6641    -0.0628     1.4167 H       
  49 H49            8.9075    -0.3650    -0.3237 H       
  50 H50            8.8333     1.9992    -0.8273 H       
  51 H51            7.9468     2.2867     2.0753 H       
  52 H52            8.4516     3.6602     1.0628 H       
  53 H53            5.9368     3.2421     1.1166 H       
  54 H54            6.6547     3.2507    -0.5153 H       
  55 H55           11.0457     2.4839    -1.2239 H       
  56 H56           13.3819     2.6837    -0.4814 H       
  57 H57           12.2183     1.4260     3.4512 H       
  58 H58            9.8870     1.2412     2.6897 H       
@<TRIPOS>BOND
   1    1    2 am
   2    1    9 1
   3    1   33 1
   4    2    3 2
   5    2    4 am
   6    4    5 1
   7    4   34 1
   8    5    6 1
   9    5   35 1
  10    5   36 1
  11    6    7 1
  12    6   37 1
  13    6   38 1
  14    7    8 1
  15    8   39 1
  16    8   40 1
  17    8   41 1
  18    9   10 ar
  19    9   14 ar
  20   10   11 ar
  21   10   15 1
  22   11   12 ar
  23   11   42 1
  24   12   13 ar
  25   12   43 1
  26   13   14 ar
  27   13   24 1
  28   14   44 1
  29   15   45 1
  30   15   46 1
  31   15   47 1
  32   16   17 1
  33   16   21 1
  34   16   23 2
  35   17   18 1
  36   17   48 1
  37   17   49 1
  38   18   19 1
  39   18   25 1
  40   18   50 1
  41   19   20 1
  42   19   51 1
  43   19   52 1
  44   20   21 1
  45   20   53 1
  46   20   54 1
  47   21   24 1
  48   22   23 1
  49   22   24 2
  50   25   26 ar
  51   25   30 ar
  52   26   27 ar
  53   26   55 1
  54   27   28 ar
  55   27   56 1
  56   28   29 ar
  57   28   31 1
  58   29   30 ar
  59   29   57 1
  60   30   58 1
  61   31   32 3

#	End of record

