#	Name: ASD01180173
#	Creating user name:	WinNT
#	Creation time:	15. 06. 2019 19:06

#	Modifying user name:	WinNT
#	Modification time:	15. 06. 2019 19:06

#	Program:	/corina/corina34_cracker 3.40 0067  02.08.2006

@<TRIPOS>MOLECULE
ASD01180173
  64   68    0    0    0
SMALL
NO_CHARGES


@<TRIPOS>ATOM
   1 C1             1.4747    -4.7990     3.1072 C.3     
   2 C2             0.4072    -3.7031     3.0943 C.3     
   3 C3            -0.7865    -4.1438     3.9438 C.3     
   4 N4             0.9706    -2.4641     3.6469 N.3     
   5 C5            -0.0979    -1.5733     4.1475 C.3     
   6 C6             0.4221    -0.1398     3.8749 C.3     
   7 C7             1.1437    -0.3218     2.5136 C.3     
   8 C8             1.7489    -1.7368     2.6275 C.3     
   9 H9             2.7924    -1.6701     2.9354 H       
  10 C10            1.6453    -2.4571     1.2817 C.3     
  11 N11            2.5074    -1.7900     0.3030 N.am    
  12 C12            2.5011    -2.1900    -0.9840 C.2     
  13 O13            1.7146    -3.0428    -1.3524 O.2     
  14 C14            3.4413    -1.5982    -1.9399 C.2     
  15 C15            4.7362    -1.9694    -1.9168 C.2     
  16 N16            5.6535    -1.4462    -2.7882 N.am    
  17 C17            7.0495    -1.8855    -2.7198 C.3     
  18 H18            7.6435    -1.3857    -3.4850 H       
  19 C19            7.6357    -1.6110    -1.3135 C.3     
  20 C20            7.4888    -2.9920    -0.6254 C.3     
  21 O21            7.7679    -3.9291    -1.6877 O.3     
  22 C22            7.1419    -3.4154    -2.8789 C.3     
  23 C23            5.2869    -0.5316    -3.7089 C.2     
  24 O24            6.1061    -0.0700    -4.4813 O.2     
  25 C25            3.8817    -0.1007    -3.7658 C.2     
  26 C26            3.2283     0.7836    -4.5654 C.2     
  27 C27            3.8404     1.5991    -5.6750 C.3     
  28 C28            1.8708     0.8001    -4.1693 C.ar    
  29 C29            0.7458     1.5036    -4.6206 C.ar    
  30 C30           -0.4643     1.3029    -4.0240 C.ar    
  31 C31           -0.5941     0.4059    -2.9705 C.ar    
  32 C32            0.4952    -0.2971    -2.5082 C.ar    
  33 C33            1.7421    -0.1108    -3.1006 C.ar    
  34 N34            2.9814    -0.6562    -2.8719 N.pl3   
  35 H35            1.0567    -5.7183     2.6971 H       
  36 H36            2.3252    -4.4850     2.5020 H       
  37 H37            1.8029    -4.9744     4.1317 H       
  38 H38            0.0790    -3.5276     2.0698 H       
  39 H39           -1.5239    -3.3418     3.9782 H       
  40 H40           -1.2373    -5.0332     3.5034 H       
  41 H41           -0.4488    -4.3705     4.9551 H       
  42 H42           -1.0255    -1.7504     3.6033 H       
  43 H43           -0.2490    -1.7253     5.2162 H       
  44 H44           -0.4045     0.5653     3.7874 H       
  45 H45            1.1220     0.1755     4.6487 H       
  46 H46            0.4313    -0.2725     1.6901 H       
  47 H47            1.9287     0.4243     2.3908 H       
  48 H48            1.9626    -3.4933     1.3987 H       
  49 H49            0.6126    -2.4305     0.9339 H       
  50 H50            3.0828    -1.0603     0.5813 H       
  51 H51            5.0599    -2.6999    -1.1902 H       
  52 H52            8.6836    -1.3186    -1.3793 H       
  53 H53            7.0535    -0.8521    -0.7908 H       
  54 H54            8.2148    -3.0983     0.1807 H       
  55 H55            6.4745    -3.1280    -0.2502 H       
  56 H56            6.1428    -3.8381    -2.9850 H       
  57 H57            7.7453    -3.6614    -3.7527 H       
  58 H58            3.7836     1.0414    -6.6098 H       
  59 H59            3.2965     2.5380    -5.7785 H       
  60 H60            4.8840     1.8078    -5.4394 H       
  61 H61            0.8369     2.2031    -5.4384 H       
  62 H62           -1.3297     1.8465    -4.3733 H       
  63 H63           -1.5596     0.2591    -2.5094 H       
  64 H64            0.3834    -0.9915    -1.6887 H       
@<TRIPOS>BOND
   1    1    2 1
   2    1   35 1
   3    1   36 1
   4    1   37 1
   5    2    3 1
   6    2    4 1
   7    2   38 1
   8    3   39 1
   9    3   40 1
  10    3   41 1
  11    4    8 1
  12    4    5 1
  13    5    6 1
  14    5   42 1
  15    5   43 1
  16    6    7 1
  17    6   44 1
  18    6   45 1
  19    7    8 1
  20    7   46 1
  21    7   47 1
  22    8    9 1
  23    8   10 1
  24   10   11 1
  25   10   48 1
  26   10   49 1
  27   11   12 am
  28   11   50 1
  29   12   13 2
  30   12   14 1
  31   14   34 1
  32   14   15 2
  33   15   16 1
  34   15   51 1
  35   16   17 1
  36   16   23 am
  37   17   18 1
  38   17   22 1
  39   17   19 1
  40   19   20 1
  41   19   52 1
  42   19   53 1
  43   20   21 1
  44   20   54 1
  45   20   55 1
  46   21   22 1
  47   22   56 1
  48   22   57 1
  49   23   24 2
  50   23   25 1
  51   25   34 1
  52   25   26 2
  53   26   27 1
  54   26   28 1
  55   27   58 1
  56   27   59 1
  57   27   60 1
  58   28   33 ar
  59   28   29 ar
  60   29   30 ar
  61   29   61 1
  62   30   31 ar
  63   30   62 1
  64   31   32 ar
  65   31   63 1
  66   32   33 ar
  67   32   64 1
  68   33   34 1

#	End of record

