#	Name: ASD03930018
#	Creating user name:	WinNT
#	Creation time:	15. 06. 2019 20:47

#	Modifying user name:	WinNT
#	Modification time:	15. 06. 2019 20:47

#	Program:	/corina/corina34_cracker 3.40 0067  02.08.2006

@<TRIPOS>MOLECULE
ASD03930018
  35   37    0    0    0
SMALL
NO_CHARGES


@<TRIPOS>ATOM
   1 C1            -0.0164     1.3554     0.0095 C.ar    
   2 C2             0.0021    -0.0041     0.0020 C.ar    
   3 C3             1.2065    -0.6968     0.0011 C.ar    
   4 C4             2.4114    -0.0457     0.0055 C.ar    
   5 C5             2.4303     1.3566    -0.0191 C.ar    
   6 C6             1.1968     2.0653     0.0017 C.ar    
   7 C7             3.6454    -0.9055     0.0604 C.3     
   8 N8             4.7696    -0.2736    -0.6413 N.am    
   9 S9             5.1695     1.2711    -0.1515 S.o2    
  10 C10            3.6152     2.1112    -0.0838 C.ar    
  11 C11            3.5793     3.4840    -0.0912 C.ar    
  12 C12            2.3564     4.1650    -0.0404 C.ar    
  13 C13            1.1901     3.4708     0.0073 C.ar    
  14 O14            5.6440     1.1713     1.1842 O.2     
  15 O15            5.9124     1.8608    -1.2096 O.2     
  16 C16            5.4992    -0.9601    -1.7102 C.3     
  17 N17            4.7721     4.2071    -0.1496 N.3     
  18 C18            4.8136     5.0585    -1.3460 C.3     
  19 C19            4.9654     5.0030     1.0699 C.3     
  20 H20           -0.9568     1.8863     0.0169 H       
  21 H21           -0.9291    -0.5512    -0.0029 H       
  22 H22            1.1922    -1.7767    -0.0029 H       
  23 H23            3.9211    -1.0675     1.1024 H       
  24 H24            3.4305    -1.8678    -0.4043 H       
  25 H25            2.3409     5.2449    -0.0386 H       
  26 H26            0.2510     4.0024     0.0491 H       
  27 H27            5.0718    -1.9510    -1.8635 H       
  28 H28            5.4204    -0.3838    -2.6321 H       
  29 H29            6.5483    -1.0562    -1.4304 H       
  30 H30            3.9801     5.7605    -1.3214 H       
  31 H31            5.7532     5.6106    -1.3666 H       
  32 H32            4.7383     4.4361    -2.2376 H       
  33 H33            5.0004     4.3403     1.9346 H       
  34 H34            5.9018     5.5563     0.9980 H       
  35 H35            4.1374     5.7030     1.1819 H       
@<TRIPOS>BOND
   1    1    2 ar
   2    1    6 ar
   3    1   20 1
   4    2    3 ar
   5    2   21 1
   6    3    4 ar
   7    3   22 1
   8    4    5 ar
   9    4    7 1
  10    5    6 ar
  11    5   10 ar
  12    6   13 ar
  13    7    8 1
  14    7   23 1
  15    7   24 1
  16    8    9 am
  17    8   16 1
  18    9   10 1
  19    9   14 2
  20    9   15 2
  21   10   11 ar
  22   11   12 ar
  23   11   17 1
  24   12   13 ar
  25   12   25 1
  26   13   26 1
  27   16   27 1
  28   16   28 1
  29   16   29 1
  30   17   18 1
  31   17   19 1
  32   18   30 1
  33   18   31 1
  34   18   32 1
  35   19   33 1
  36   19   34 1
  37   19   35 1

#	End of record

