#	Name: ASD01882717
#	Creating user name:	WinNT
#	Creation time:	15. 06. 2019 19:45

#	Modifying user name:	WinNT
#	Modification time:	15. 06. 2019 19:45

#	Program:	/corina/corina34_cracker 3.40 0067  02.08.2006

@<TRIPOS>MOLECULE
ASD01882717
  33   34    0    0    0
SMALL
NO_CHARGES


@<TRIPOS>ATOM
   1 O1            -0.0173     1.4248     0.0099 O.3     
   2 C2             0.0021    -0.0041     0.0020 C.3     
   3 C3             1.2831     0.8325    -0.0057 C.3     
   4 C4            -0.3680    -0.7292     1.2974 C.3     
   5 O5            -1.5561    -1.4961     1.0913 O.3     
   6 C6            -2.0238    -2.2062     2.1515 C.ar    
   7 C7            -3.1729    -2.9729     2.0218 C.ar    
   8 C8            -3.6463    -3.6936     3.1008 C.ar    
   9 C9            -2.9761    -3.6512     4.3097 C.ar    
  10 C10           -1.8312    -2.8877     4.4416 C.ar    
  11 C11           -1.3500    -2.1701     3.3634 C.ar    
  12 C12           -4.8943    -4.5266     2.9607 C.3     
  13 C13           -4.6831    -5.5829     1.8741 C.3     
  14 C14           -5.1984    -5.2176     4.2915 C.3     
  15 C15           -6.0685    -3.6250     2.5742 C.3     
  16 H16           -0.2792    -0.5108    -0.9211 H       
  17 H17            1.8523     0.8812    -0.9340 H       
  18 H18            1.8699     0.8713     0.9120 H       
  19 H19            0.4467    -1.3924     1.5881 H       
  20 H20           -0.5402     0.0024     2.0869 H       
  21 H21           -3.6970    -3.0058     1.0781 H       
  22 H22           -3.3480    -4.2152     5.1524 H       
  23 H23           -1.3099    -2.8559     5.3869 H       
  24 H24           -0.4528    -1.5776     3.4656 H       
  25 H25           -3.8467    -6.2252     2.1495 H       
  26 H26           -5.5858    -6.1853     1.7728 H       
  27 H27           -4.4665    -5.0906     0.9260 H       
  28 H28           -5.3488    -4.4651     5.0655 H       
  29 H29           -6.1011    -5.8201     4.1901 H       
  30 H30           -4.3619    -5.8599     4.5668 H       
  31 H31           -5.8518    -3.1327     1.6261 H       
  32 H32           -6.9711    -4.2275     2.4728 H       
  33 H33           -6.2189    -2.8725     3.3483 H       
@<TRIPOS>BOND
   1    1    2 1
   2    1    3 1
   3    2    3 1
   4    2    4 1
   5    2   16 1
   6    3   17 1
   7    3   18 1
   8    4    5 1
   9    4   19 1
  10    4   20 1
  11    5    6 1
  12    6    7 ar
  13    6   11 ar
  14    7    8 ar
  15    7   21 1
  16    8    9 ar
  17    8   12 1
  18    9   10 ar
  19    9   22 1
  20   10   11 ar
  21   10   23 1
  22   11   24 1
  23   12   13 1
  24   12   15 1
  25   12   14 1
  26   13   25 1
  27   13   26 1
  28   13   27 1
  29   14   28 1
  30   14   29 1
  31   14   30 1
  32   15   31 1
  33   15   32 1
  34   15   33 1

#	End of record

