#	Name: ASD05633004
#	Creating user name:	WinNT
#	Creation time:	15. 06. 2019 21:01

#	Modifying user name:	WinNT
#	Modification time:	15. 06. 2019 21:01

#	Program:	/corina/corina34_cracker 3.40 0067  02.08.2006

@<TRIPOS>MOLECULE
ASD05633004
  59   62    0    0    0
SMALL
NO_CHARGES


@<TRIPOS>ATOM
   1 C1            -0.0167     1.3790     0.0096 C.ar    
   2 C2             0.0021    -0.0041     0.0020 C.ar    
   3 C3            -1.1821    -0.7129     0.0091 C.ar    
   4 C4            -2.3982    -0.0326     0.0243 C.ar    
   5 C5            -2.4111     1.3609     0.0324 C.ar    
   6 C6            -1.2208     2.0594     0.0305 C.ar    
   7 C7            -3.6745    -0.7890     0.0315 C.ar    
   8 C8            -4.8901    -0.1074     0.0467 C.ar    
   9 C9            -6.0748    -0.8133     0.0529 C.ar    
  10 C10           -6.0574    -2.2014     0.0443 C.ar    
  11 C11           -4.8481    -2.8832     0.0291 C.ar    
  12 C12           -3.6602    -2.1827     0.0171 C.ar    
  13 S13            1.4990     2.2774    -0.0000 S.o2    
  14 O14            1.1756     3.5170     0.6150 O.2     
  15 O15            2.4369     1.3888     0.5915 O.2     
  16 C16            1.8716     2.5177    -1.7590 C.3     
  17 O17           -7.2262    -2.8942     0.0513 O.3     
  18 C18           -7.1352    -4.3203     0.0418 C.3     
  19 C19           -8.5211    -4.9122     0.0514 C.2     
  20 N20           -8.6824    -6.2503     0.0449 N.am    
  21 C21          -10.0296    -6.8257     0.0543 C.3     
  22 O22           -9.4912    -4.1845     0.0651 O.2     
  23 C23           -9.9322    -8.3525     0.0441 C.3     
  24 C24          -11.3180    -8.9444     0.0537 C.2     
  25 C25          -12.0053    -9.3506     1.1329 C.2     
  26 N26          -13.2284    -9.8323     0.7529 N.pl3   
  27 C27          -13.3612    -9.7455    -0.6148 C.ar    
  28 C28          -12.1731    -9.1798    -1.1121 C.ar    
  29 C29          -14.3776   -10.0854    -1.5019 C.ar    
  30 C30          -14.2076    -9.8709    -2.8519 C.ar    
  31 C31          -13.0306    -9.3181    -3.3383 C.ar    
  32 C32          -12.0225    -8.9701    -2.4843 C.ar    
  33 C33            3.1618     3.2838    -1.8991 C.2     
  34 O34            3.7677     3.6321    -0.9135 O.2     
  35 O35            3.6377     3.5794    -3.1189 O.3     
  36 H36            0.9451    -0.5303    -0.0098 H       
  37 H37           -1.1663    -1.7927     0.0024 H       
  38 H38           -3.3508     1.8931     0.0439 H       
  39 H39           -1.2296     3.1394     0.0371 H       
  40 H40           -4.9043     0.9725     0.0541 H       
  41 H41           -7.0171    -0.2856     0.0647 H       
  42 H42           -4.8376    -3.9631     0.0228 H       
  43 H43           -2.7198    -2.7135     0.0049 H       
  44 H44            1.9707     1.5472    -2.2453 H       
  45 H45            1.0633     3.0783    -2.2284 H       
  46 H46           -6.6078    -4.6447    -0.8553 H       
  47 H47           -6.5908    -4.6555     0.9246 H       
  48 H48           -7.9065    -6.8323     0.0339 H       
  49 H49          -10.5570    -6.5012     0.9513 H       
  50 H50          -10.5740    -6.4905    -0.8286 H       
  51 H51           -9.4047    -8.6770    -0.8529 H       
  52 H52           -9.3877    -8.6877     0.9269 H       
  53 H53          -11.6459    -9.3047     2.1503 H       
  54 H54          -13.9014   -10.1829     1.3570 H       
  55 H55          -15.2968   -10.5163    -1.1334 H       
  56 H56          -14.9976   -10.1358    -3.5390 H       
  57 H57          -12.9131    -9.1568    -4.3998 H       
  58 H58          -11.1097    -8.5405    -2.8699 H       
  59 H59            4.4687     4.0723    -3.1583 H       
@<TRIPOS>BOND
   1    1    2 ar
   2    1   13 1
   3    1    6 ar
   4    2    3 ar
   5    2   36 1
   6    3    4 ar
   7    3   37 1
   8    4    5 ar
   9    4    7 1
  10    5    6 ar
  11    5   38 1
  12    6   39 1
  13    7    8 ar
  14    7   12 ar
  15    8    9 ar
  16    8   40 1
  17    9   10 ar
  18    9   41 1
  19   10   11 ar
  20   10   17 1
  21   11   12 ar
  22   11   42 1
  23   12   43 1
  24   13   14 2
  25   13   15 2
  26   13   16 1
  27   16   33 1
  28   16   44 1
  29   16   45 1
  30   17   18 1
  31   18   19 1
  32   18   46 1
  33   18   47 1
  34   19   20 am
  35   19   22 2
  36   20   21 1
  37   20   48 1
  38   21   23 1
  39   21   49 1
  40   21   50 1
  41   23   24 1
  42   23   51 1
  43   23   52 1
  44   24   25 2
  45   24   28 1
  46   25   26 1
  47   25   53 1
  48   26   27 1
  49   26   54 1
  50   27   28 ar
  51   27   29 ar
  52   28   32 ar
  53   29   30 ar
  54   29   55 1
  55   30   31 ar
  56   30   56 1
  57   31   32 ar
  58   31   57 1
  59   32   58 1
  60   33   34 2
  61   33   35 1
  62   35   59 1

#	End of record

