#	Name: ASD03490011
#	Creating user name:	WinNT
#	Creation time:	15. 06. 2019 20:42

#	Modifying user name:	WinNT
#	Modification time:	15. 06. 2019 20:42

#	Program:	/corina/corina34_cracker 3.40 0067  02.08.2006

@<TRIPOS>MOLECULE
ASD03490011
  76   80    0    0    0
SMALL
NO_CHARGES


@<TRIPOS>ATOM
   1 C1            -0.0142     1.3514    -0.0294 C.2     
   2 C2             0.0066    -0.0092    -0.0914 C.2     
   3 C3            -1.3164    -0.4587    -0.0949 C.2     
   4 N4            -2.1088     0.5816    -0.0377 N.2     
   5 N5            -1.3192     1.7377     0.0102 N.pl3   
   6 N6             1.0947     2.1919    -0.0050 N.am    
   7 C7             2.3368     1.6701    -0.0445 C.2     
   8 C8             3.5238     2.5697    -0.0183 C.2     
   9 C9             4.8700     2.0027     0.0758 C.ar    
  10 C10            6.0507     2.8632    -0.0328 C.ar    
  11 C11            7.3354     2.2790     0.0636 C.ar    
  12 C12            7.4510     0.8857     0.2608 C.ar    
  13 C13            6.3208     0.0950     0.3596 C.ar    
  14 C14            5.0517     0.6316     0.2765 C.ar    
  15 C15            5.9312     4.2418    -0.2290 C.ar    
  16 C16            7.0567     5.0104    -0.3256 C.ar    
  17 C17            8.3224     4.4375    -0.2314 C.ar    
  18 C18            8.4715     3.0965    -0.0393 C.ar    
  19 O19            8.6775     0.3195     0.3535 O.3     
  20 C20            8.7259    -1.0947     0.5530 C.3     
  21 C21           10.1847    -1.5489     0.6324 C.3     
  22 N22           10.8147    -0.9665     1.8248 N.3     
  23 C23           12.1366    -1.5628     2.0667 C.3     
  24 C24           12.7810    -0.8869     3.2799 C.3     
  25 O25           11.9132    -1.0177     4.4091 O.3     
  26 C26           10.6172    -0.4471     4.2083 C.3     
  27 C27            9.9508    -1.1186     3.0046 C.3     
  28 C28           -1.7569    -1.8986    -0.1547 C.3     
  29 C29           -1.5312    -2.5579     1.2075 C.3     
  30 C30           -3.2431    -1.9629    -0.5124 C.3     
  31 C31           -0.9435    -2.6370    -1.2196 C.3     
  32 O32            2.4882     0.4666    -0.1014 O.2     
  33 O33            3.3745     3.7749    -0.0750 O.2     
  34 C34           -1.7887     3.0564     0.0781 C.ar    
  35 C35           -2.9555     3.4145    -0.5838 C.ar    
  36 C36           -3.4159     4.7148    -0.5145 C.ar    
  37 C37           -2.7159     5.6597     0.2131 C.ar    
  38 C38           -1.5533     5.3063     0.8730 C.ar    
  39 C39           -1.0909     4.0063     0.8122 C.ar    
  40 C40           -3.2210     7.0777     0.2866 C.3     
  41 Cl41           6.9069     6.7227    -0.5694 Cl      
  42 H42            0.8891    -0.6305    -0.1308 H       
  43 H43            0.9738     3.1532     0.0405 H       
  44 H44            6.4339    -0.9685     0.5105 H       
  45 H45            4.1910    -0.0157     0.3579 H       
  46 H46            4.9547     4.6969    -0.3043 H       
  47 H47            9.1980     5.0646    -0.3114 H       
  48 H48            9.4589     2.6649     0.0323 H       
  49 H49            8.2153    -1.3482     1.4821 H       
  50 H50            8.2340    -1.5962    -0.2805 H       
  51 H51           10.2237    -2.6364     0.6954 H       
  52 H52           10.7176    -1.2172    -0.2587 H       
  53 H53           12.0246    -2.6294     2.2612 H       
  54 H54           12.7679    -1.4162     1.1903 H       
  55 H55           13.7363    -1.3644     3.4978 H       
  56 H56           12.9421     0.1696     3.0651 H       
  57 H57           10.0076    -0.6066     5.0977 H       
  58 H58           10.7154     0.6221     4.0205 H       
  59 H59            8.9867    -0.6478     2.8128 H       
  60 H60            9.8040    -2.1781     3.2140 H       
  61 H61           -2.1107    -2.0318     1.9662 H       
  62 H62           -1.8498    -3.5994     1.1643 H       
  63 H63           -0.4724    -2.5121     1.4623 H       
  64 H64           -3.4038    -1.4932    -1.4828 H       
  65 H65           -3.5617    -3.0044    -0.5556 H       
  66 H66           -3.8225    -1.4369     0.2463 H       
  67 H67            0.1153    -2.5912    -0.9647 H       
  68 H68           -1.2621    -3.6785    -1.2628 H       
  69 H69           -1.1043    -2.1673    -2.1900 H       
  70 H70           -3.5024     2.6770    -1.1525 H       
  71 H71           -4.3232     4.9940    -1.0295 H       
  72 H72           -1.0084     6.0467     1.4399 H       
  73 H73           -0.1828     3.7308     1.3279 H       
  74 H74           -3.8903     7.1811     1.1406 H       
  75 H75           -2.3775     7.7583     0.4015 H       
  76 H76           -3.7605     7.3191    -0.6293 H       
@<TRIPOS>BOND
   1    1    2 2
   2    1    6 1
   3    1    5 1
   4    2    3 1
   5    2   42 1
   6    3    4 2
   7    3   28 1
   8    4    5 1
   9    5   34 1
  10    6    7 am
  11    6   43 1
  12    7    8 1
  13    7   32 2
  14    8    9 1
  15    8   33 2
  16    9   10 ar
  17    9   14 ar
  18   10   11 ar
  19   10   15 ar
  20   11   12 ar
  21   11   18 ar
  22   12   13 ar
  23   12   19 1
  24   13   14 ar
  25   13   44 1
  26   14   45 1
  27   15   16 ar
  28   15   46 1
  29   16   17 ar
  30   16   41 1
  31   17   18 ar
  32   17   47 1
  33   18   48 1
  34   19   20 1
  35   20   21 1
  36   20   49 1
  37   20   50 1
  38   21   22 1
  39   21   51 1
  40   21   52 1
  41   22   23 1
  42   22   27 1
  43   23   24 1
  44   23   53 1
  45   23   54 1
  46   24   25 1
  47   24   55 1
  48   24   56 1
  49   25   26 1
  50   26   27 1
  51   26   57 1
  52   26   58 1
  53   27   59 1
  54   27   60 1
  55   28   29 1
  56   28   30 1
  57   28   31 1
  58   29   61 1
  59   29   62 1
  60   29   63 1
  61   30   64 1
  62   30   65 1
  63   30   66 1
  64   31   67 1
  65   31   68 1
  66   31   69 1
  67   34   35 ar
  68   34   39 ar
  69   35   36 ar
  70   35   70 1
  71   36   37 ar
  72   36   71 1
  73   37   38 ar
  74   37   40 1
  75   38   39 ar
  76   38   72 1
  77   39   73 1
  78   40   74 1
  79   40   75 1
  80   40   76 1

#	End of record

