#	Name: ASD01812117
#	Creating user name:	WinNT
#	Creation time:	15. 06. 2019 19:28

#	Modifying user name:	WinNT
#	Modification time:	15. 06. 2019 19:28

#	Program:	/corina/corina34_cracker 3.40 0067  02.08.2006

@<TRIPOS>MOLECULE
ASD01812117
  58   62    0    0    0
SMALL
NO_CHARGES


@<TRIPOS>ATOM
   1 C1            -0.0143     1.5358    -0.0144 C.3     
   2 C2             0.0021     0.0059    -0.0132 C.3     
   3 C3             0.7223    -0.4974    -1.2658 C.3     
   4 C4             2.1593     0.0280    -1.2736 C.3     
   5 C5             2.1429     1.5579    -1.2748 C.3     
   6 C6             1.4227     2.0612    -0.0223 C.3     
   7 O7             2.8320    -0.4421    -2.4434 O.3     
   8 O8             0.7376    -1.9263    -1.2646 O.3     
   9 C9            -0.3542    -2.5543    -1.7684 C.ar    
  10 C10           -1.4663    -1.8194    -2.1508 C.ar    
  11 C11           -2.5787    -2.4567    -2.6643 C.ar    
  12 C12           -2.5929    -3.8362    -2.8019 C.ar    
  13 C13           -1.4982    -4.5778    -2.4273 C.ar    
  14 C14           -0.3618    -3.9489    -1.9106 C.ar    
  15 C15           -1.1958    -6.0555    -2.4450 C.3     
  16 N16            0.1614    -6.2021    -1.9065 N.am    
  17 C17            0.6387    -4.9833    -1.6004 C.2     
  18 O18            1.7398    -4.7663    -1.1326 O.2     
  19 C19            0.8790    -7.4676    -1.7342 C.3     
  20 C20            1.6586    -7.7775    -2.9860 C.ar    
  21 C21            2.9587    -7.3242    -3.1181 C.ar    
  22 C22            3.6774    -7.6056    -4.2624 C.ar    
  23 C23            3.0911    -8.3476    -5.2853 C.ar    
  24 C24            1.7814    -8.8017    -5.1471 C.ar    
  25 C25            1.0735    -8.5191    -3.9964 C.ar    
  26 C26            3.8592    -8.6529    -6.5187 C.2     
  27 C27            5.1838    -8.2604    -6.7929 C.2     
  28 N28            5.5066    -8.7178    -7.9736 N.2     
  29 N29            4.4102    -9.4147    -8.4957 N.pl3   
  30 C30            3.4123    -9.3698    -7.5901 C.2     
  31 C31            4.3580   -10.0821    -9.7988 C.3     
  32 H32           -0.5365     1.8929    -0.9021 H       
  33 H33           -0.5274     1.8944     0.8779 H       
  34 H34            0.5243    -0.3512     0.8744 H       
  35 H35           -1.0216    -0.3684    -0.0077 H       
  36 H36            0.2001    -0.1403    -2.1534 H       
  37 H37            2.6815    -0.3291    -0.3860 H       
  38 H38            3.1666     1.9322    -1.2804 H       
  39 H39            1.6207     1.9149    -2.1624 H       
  40 H40            1.4110     3.1511    -0.0231 H       
  41 H41            1.9449     1.7041     0.8653 H       
  42 H42            3.7501    -0.1470    -2.5145 H       
  43 H43           -1.4627    -0.7444    -2.0462 H       
  44 H44           -3.4414    -1.8780    -2.9597 H       
  45 H45           -3.4659    -4.3288    -3.2039 H       
  46 H46           -1.9079    -6.5912    -1.8174 H       
  47 H47           -1.2366    -6.4341    -3.4663 H       
  48 H48            1.5642    -7.3848    -0.8905 H       
  49 H49            0.1637    -8.2679    -1.5441 H       
  50 H50            3.4122    -6.7488    -2.3246 H       
  51 H51            4.6923    -7.2509    -4.3647 H       
  52 H52            1.3222    -9.3773    -5.9372 H       
  53 H53            0.0580    -8.8706    -3.8882 H       
  54 H54            5.8215    -7.6818    -6.1409 H       
  55 H55            2.4340    -9.8148    -7.6964 H       
  56 H56            4.6908   -11.1145    -9.6918 H       
  57 H57            3.3348   -10.0672   -10.1739 H       
  58 H58            5.0098    -9.5611   -10.5001 H       
@<TRIPOS>BOND
   1    1    2 1
   2    1    6 1
   3    1   32 1
   4    1   33 1
   5    2    3 1
   6    2   34 1
   7    2   35 1
   8    3    8 1
   9    3    4 1
  10    3   36 1
  11    4    5 1
  12    4    7 1
  13    4   37 1
  14    5    6 1
  15    5   38 1
  16    5   39 1
  17    6   40 1
  18    6   41 1
  19    7   42 1
  20    8    9 1
  21    9   10 ar
  22    9   14 ar
  23   10   11 ar
  24   10   43 1
  25   11   12 ar
  26   11   44 1
  27   12   13 ar
  28   12   45 1
  29   13   14 ar
  30   13   15 1
  31   14   17 1
  32   15   16 1
  33   15   46 1
  34   15   47 1
  35   16   17 am
  36   16   19 1
  37   17   18 2
  38   19   20 1
  39   19   48 1
  40   19   49 1
  41   20   21 ar
  42   20   25 ar
  43   21   22 ar
  44   21   50 1
  45   22   23 ar
  46   22   51 1
  47   23   24 ar
  48   23   26 1
  49   24   25 ar
  50   24   52 1
  51   25   53 1
  52   26   27 1
  53   26   30 2
  54   27   28 2
  55   27   54 1
  56   28   29 1
  57   29   30 1
  58   29   31 1
  59   30   55 1
  60   31   56 1
  61   31   57 1
  62   31   58 1

#	End of record

