#	Name: ASD02500639
#	Creating user name:	WinNT
#	Creation time:	15. 06. 2019 20:23

#	Modifying user name:	WinNT
#	Modification time:	15. 06. 2019 20:23

#	Program:	/corina/corina34_cracker 3.40 0067  02.08.2006

@<TRIPOS>MOLECULE
ASD02500639
  71   75    0    0    0
SMALL
NO_CHARGES


@<TRIPOS>ATOM
   1 N1            -3.6686     5.9350    -1.4954 N.ar    
   2 C2            -4.4725     6.5973    -2.2912 C.ar    
   3 C3            -5.8525     6.6043    -2.0991 C.ar    
   4 C4            -6.3996     5.9078    -1.0594 C.ar    
   5 C5            -5.5332     5.1973    -0.2071 C.ar    
   6 C6            -6.0223     4.4592     0.8824 C.ar    
   7 C7            -5.1516     3.7856     1.6840 C.ar    
   8 C8            -3.7808     3.8194     1.4378 C.ar    
   9 C9            -3.2724     4.5248     0.3906 C.ar    
  10 C10           -4.1392     5.2332    -0.4595 C.ar    
  11 S11           -1.5344     4.5509     0.1025 S.o2    
  12 O12           -1.1734     5.9168    -0.0503 O.2     
  13 O13           -0.9529     3.6979     1.0790 O.2     
  14 N14           -1.2699     3.8304    -1.3649 N.am    
  15 C15           -1.5159     2.4689    -1.5267 C.ar    
  16 C16           -0.7238     1.7159    -2.3960 C.ar    
  17 C17           -0.9668     0.3672    -2.5569 C.ar    
  18 C18           -2.0069    -0.2426    -1.8481 C.ar    
  19 C19           -2.7960     0.5159    -0.9798 C.ar    
  20 C20           -2.5457     1.8609    -0.8183 C.ar    
  21 C21           -2.2706    -1.6841    -2.0173 C.2     
  22 O22           -2.2010    -2.1895    -3.1211 O.2     
  23 N23           -2.5887    -2.4410    -0.9485 N.am    
  24 C24           -2.7660    -3.8953    -1.0792 C.3     
  25 C25           -1.9094    -4.5877    -0.0138 C.3     
  26 N26           -2.2388    -4.0381     1.3081 N.3     
  27 C27           -1.9112    -2.6083     1.3874 C.3     
  28 C28           -2.7619    -1.8356     0.3807 C.3     
  29 C29           -1.5662    -4.7923     2.3743 C.3     
  30 C30           -1.7267    -4.0506     3.7028 C.3     
  31 C31           -1.0262    -4.8361     4.8133 C.3     
  32 C32           -1.1843    -4.1056     6.1219 C.ar    
  33 C33           -2.2696    -4.3721     6.9355 C.ar    
  34 C34           -2.4147    -3.7020     8.1358 C.ar    
  35 C35           -1.4743    -2.7657     8.5227 C.ar    
  36 C36           -0.3885    -2.4998     7.7096 C.ar    
  37 C37           -0.2411    -3.1730     6.5113 C.ar    
  38 O38            0.2867     2.3119    -3.0844 O.3     
  39 C39            1.0564     1.4811    -3.9558 C.3     
  40 H40           -4.0540     7.1526    -3.1176 H       
  41 H41           -6.4890     7.1602    -2.7716 H       
  42 H42           -7.4670     5.9025    -0.8955 H       
  43 H43           -7.0828     4.4261     1.0838 H       
  44 H44           -5.5287     3.2180     2.5218 H       
  45 H45           -3.1106     3.2773     2.0885 H       
  46 H46           -0.9436     4.3564    -2.1117 H       
  47 H47           -0.3553    -0.2164    -3.2291 H       
  48 H48           -3.5996     0.0467    -0.4316 H       
  49 H49           -3.1538     2.4450    -0.1434 H       
  50 H50           -3.8148    -4.1512    -0.9289 H       
  51 H51           -2.4465    -4.2154    -2.0709 H       
  52 H52           -2.1125    -5.6586    -0.0234 H       
  53 H53           -0.8544    -4.4153    -0.2268 H       
  54 H54           -2.1156    -2.2436     2.3940 H       
  55 H55           -0.8562    -2.4634     1.1549 H       
  56 H56           -2.4397    -0.7946     0.3536 H       
  57 H57           -3.8103    -1.8897     0.6739 H       
  58 H58           -2.0123    -5.7835     2.4552 H       
  59 H59           -0.5065    -4.8890     2.1379 H       
  60 H60           -1.2806    -3.0594     3.6218 H       
  61 H61           -2.7864    -3.9539     3.9392 H       
  62 H62           -1.4723    -5.8273     4.8943 H       
  63 H63            0.0335    -4.9328     4.5769 H       
  64 H64           -3.0044    -5.1036     6.6332 H       
  65 H65           -3.2630    -3.9097     8.7711 H       
  66 H66           -1.5880    -2.2416     9.4602 H       
  67 H67            0.3461    -1.7680     8.0117 H       
  68 H68            0.6091    -2.9680     5.8777 H       
  69 H69            0.4038     1.0453    -4.7124 H       
  70 H70            1.8269     2.0796    -4.4417 H       
  71 H71            1.5254     0.6846    -3.3781 H       
@<TRIPOS>BOND
   1    1    2 ar
   2    1   10 ar
   3    2    3 ar
   4    2   40 1
   5    3    4 ar
   6    3   41 1
   7    4    5 ar
   8    4   42 1
   9    5    6 ar
  10    5   10 ar
  11    6    7 ar
  12    6   43 1
  13    7    8 ar
  14    7   44 1
  15    8    9 ar
  16    8   45 1
  17    9   10 ar
  18    9   11 1
  19   11   12 2
  20   11   13 2
  21   11   14 am
  22   14   15 1
  23   14   46 1
  24   15   16 ar
  25   15   20 ar
  26   16   17 ar
  27   16   38 1
  28   17   18 ar
  29   17   47 1
  30   18   19 ar
  31   18   21 1
  32   19   20 ar
  33   19   48 1
  34   20   49 1
  35   21   22 2
  36   21   23 am
  37   23   24 1
  38   23   28 1
  39   24   25 1
  40   24   50 1
  41   24   51 1
  42   25   26 1
  43   25   52 1
  44   25   53 1
  45   26   27 1
  46   26   29 1
  47   27   28 1
  48   27   54 1
  49   27   55 1
  50   28   56 1
  51   28   57 1
  52   29   30 1
  53   29   58 1
  54   29   59 1
  55   30   31 1
  56   30   60 1
  57   30   61 1
  58   31   32 1
  59   31   62 1
  60   31   63 1
  61   32   33 ar
  62   32   37 ar
  63   33   34 ar
  64   33   64 1
  65   34   35 ar
  66   34   65 1
  67   35   36 ar
  68   35   66 1
  69   36   37 ar
  70   36   67 1
  71   37   68 1
  72   38   39 1
  73   39   69 1
  74   39   70 1
  75   39   71 1

#	End of record

