#	Name: ASD01948120
#	Creating user name:	WinNT
#	Creation time:	15. 06. 2019 20:13

#	Modifying user name:	WinNT
#	Modification time:	15. 06. 2019 20:13

#	Program:	/corina/corina34_cracker 3.40 0067  02.08.2006

@<TRIPOS>MOLECULE
ASD01948120
  34   36    0    0    0
SMALL
NO_CHARGES


@<TRIPOS>ATOM
   1 C1             1.8001     1.4193    -1.0467 C.ar    
   2 C2             1.5982     0.0461    -1.1435 C.ar    
   3 C3             1.7716    -0.5931    -2.3634 C.ar    
   4 C4             2.1438     0.1353    -3.4771 C.ar    
   5 C5             2.3439     1.4996    -3.3785 C.ar    
   6 C6             2.1673     2.1422    -2.1664 C.ar    
   7 N7             1.2218    -0.6887    -0.0143 N.pl3   
   8 C8             3.6310    -2.2845    -0.4412 C.2     
   9 C9             2.3512    -2.8746    -0.2922 C.2     
  10 C10            1.1512    -2.0679    -0.0789 C.2     
  11 N11            4.6876    -3.1053    -0.6403 N.am    
  12 F12            1.6321     2.0460     0.1383 F       
  13 C13            2.2375    -4.2707    -0.3512 C.2     
  14 N14            1.0111    -4.8568    -0.2090 N.am    
  15 C15           -0.0983    -4.1252    -0.0117 C.2     
  16 C16           -0.0598    -2.7284     0.0571 C.2     
  17 C17            4.5107    -4.4465    -0.6929 C.2     
  18 N18            3.3408    -5.0062    -0.5465 N.2     
  19 O19            3.7744    -1.0754    -0.3964 O.2     
  20 C20            0.9040    -6.3165    -0.2724 C.3     
  21 O21           -1.1708    -4.6954     0.1087 O.2     
  22 F22           -1.1970    -2.0269     0.2568 F       
  23 N23            2.7425     2.2756    -4.5744 N.pl3   
  24 O24            2.8939     1.7120    -5.6435 O.2     
  25 O25            2.9192     3.4777    -4.4892 O.2     
  26 H26            1.6160    -1.6589    -2.4420 H       
  27 H27            2.2790    -0.3622    -4.4261 H       
  28 H28            2.3241     3.2082    -2.0929 H       
  29 H29            1.0104    -0.2305     0.8142 H       
  30 H30            5.5762    -2.7311    -0.7462 H       
  31 H31            5.3720    -5.0781    -0.8531 H       
  32 H32            1.0213    -6.7332     0.7280 H       
  33 H33           -0.0734    -6.5922    -0.6685 H       
  34 H34            1.6842    -6.7102    -0.9237 H       
@<TRIPOS>BOND
   1    1    2 ar
   2    1   12 1
   3    1    6 ar
   4    2    3 ar
   5    2    7 1
   6    3    4 ar
   7    3   26 1
   8    4    5 ar
   9    4   27 1
  10    5    6 ar
  11    5   23 1
  12    6   28 1
  13    7   10 1
  14    7   29 1
  15    8    9 1
  16    8   19 2
  17    8   11 am
  18    9   10 1
  19    9   13 2
  20   10   16 2
  21   11   17 1
  22   11   30 1
  23   13   14 1
  24   13   18 1
  25   14   15 am
  26   14   20 1
  27   15   16 1
  28   15   21 2
  29   16   22 1
  30   17   18 2
  31   17   31 1
  32   20   32 1
  33   20   33 1
  34   20   34 1
  35   23   24 2
  36   23   25 2

#	End of record

