#	Name: ASD07300999
#	Creating user name:	WinNT
#	Creation time:	15. 06. 2019 21:10

#	Modifying user name:	WinNT
#	Modification time:	15. 06. 2019 21:10

#	Program:	/corina/corina34_cracker 3.40 0067  02.08.2006

@<TRIPOS>MOLECULE
ASD07300999
  29   30    0    0    0
SMALL
NO_CHARGES


@<TRIPOS>ATOM
   1 C1            -0.0171     1.4664     0.0505 C.2     
   2 C2             0.0021    -0.0041     0.0013 C.2     
   3 C3             1.2770    -0.6358    -0.0552 C.2     
   4 C4             2.3778     0.1597    -0.0595 C.2     
   5 N5             2.2588     1.5108    -0.0109 N.pl3   
   6 N6             1.1310     2.1174     0.0401 N.2     
   7 O7            -1.0310    -0.6548     0.0089 O.2     
   8 C8             5.8075     2.4728     0.0617 C.ar    
   9 C9             4.6793     1.6777     0.0716 C.ar    
  10 C10            3.4256     2.2799    -0.0175 C.ar    
  11 C11            3.3658     3.6690    -0.1137 C.ar    
  12 C12            4.5413     4.3923    -0.1173 C.ar    
  13 N13            5.7093     3.7851    -0.0308 N.ar    
  14 O14            1.3885    -1.9899    -0.1027 O.3     
  15 C15            2.7102    -2.5304    -0.1574 C.3     
  16 C16           -1.2906     2.1966     0.1041 C.2     
  17 O17           -2.3393     1.5872     0.1080 O.2     
  18 C18           -1.2941     3.7027     0.1541 C.3     
  19 H19            3.3596    -0.2883    -0.1016 H       
  20 H20            6.7830     2.0150     0.1349 H       
  21 H21            4.7669     0.6039     0.1472 H       
  22 H22            2.4129     4.1724    -0.1849 H       
  23 H23            4.5045     5.4691    -0.1916 H       
  24 H24            3.2162    -2.1633    -1.0504 H       
  25 H25            3.2660    -2.2216     0.7279 H       
  26 H26            2.6566    -3.6186    -0.1916 H       
  27 H27           -0.2676     4.0690     0.1426 H       
  28 H28           -1.8291     4.0938    -0.7113 H       
  29 H29           -1.7882     4.0348     1.0672 H       
@<TRIPOS>BOND
   1    1    2 1
   2    1    6 2
   3    1   16 1
   4    2    3 1
   5    2    7 2
   6    3    4 2
   7    3   14 1
   8    4    5 1
   9    4   19 1
  10    5    6 1
  11    5   10 1
  12    8    9 ar
  13    8   13 ar
  14    8   20 1
  15    9   10 ar
  16    9   21 1
  17   10   11 ar
  18   11   12 ar
  19   11   22 1
  20   12   13 ar
  21   12   23 1
  22   14   15 1
  23   15   24 1
  24   15   25 1
  25   15   26 1
  26   16   17 2
  27   16   18 1
  28   18   27 1
  29   18   28 1
  30   18   29 1

#	End of record

