#	Name: ASD01230803
#	Creating user name:	WinNT
#	Creation time:	15. 06. 2019 19:15

#	Modifying user name:	WinNT
#	Modification time:	15. 06. 2019 19:15

#	Program:	/corina/corina34_cracker 3.40 0067  02.08.2006

@<TRIPOS>MOLECULE
ASD01230803
  43   45    0    0    0
SMALL
NO_CHARGES


@<TRIPOS>ATOM
   1 C1            -1.1495     4.3076     2.5166 C.2     
   2 C2            -1.7130     3.1384     2.9793 C.2     
   3 C3            -3.0170     3.1692     3.4927 C.2     
   4 C4            -3.7160     4.3167     3.5257 C.2     
   5 N5            -3.2107     5.5061     3.0627 N.pl3   
   6 C6            -1.9330     5.5596     2.5826 C.2     
   7 C7            -4.1133     6.6592     3.1167 C.3     
   8 C8            -3.3347     7.9361     3.4465 C.3     
   9 S9            -2.0514     8.1263     2.1691 S.o2    
  10 N10           -1.3213     6.6416     2.1656 N.am    
  11 C11            0.2250     4.3112     1.9662 C.ar    
  12 O12           -2.6369     8.2461     0.8799 O.2     
  13 O13           -1.0351     9.0191     2.6043 O.2     
  14 C14            0.5112     3.6088     0.7951 C.ar    
  15 C15            1.7924     3.6148     0.2853 C.ar    
  16 C16            2.7970     4.3182     0.9360 C.ar    
  17 C17            2.5160     5.0184     2.1015 C.ar    
  18 C18            1.2360     5.0217     2.6142 C.ar    
  19 O19            4.0587     4.3212     0.4310 O.3     
  20 C20            5.0171     5.1557     1.0845 C.3     
  21 C21            5.2179     4.6727     2.5223 C.3     
  22 C22            6.3483     5.0885     0.3333 C.3     
  23 C23            4.5113     6.5996     1.0975 C.3     
  24 H24           -1.1585     2.2122     2.9465 H       
  25 H25           -3.4652     2.2603     3.8659 H       
  26 H26           -4.7163     4.3022     3.9327 H       
  27 H27           -4.6045     6.7769     2.1508 H       
  28 H28           -4.8678     6.4896     3.8848 H       
  29 H29           -4.0056     8.7950     3.4298 H       
  30 H30           -2.8707     7.8450     4.4286 H       
  31 H31           -0.2696     3.0607     0.2888 H       
  32 H32            2.0147     3.0713    -0.6212 H       
  33 H33            3.3001     5.5644     2.6050 H       
  34 H34            1.0181     5.5668     3.5207 H       
  35 H35            5.9090     3.8299     2.5293 H       
  36 H36            5.6278     5.4837     3.1242 H       
  37 H37            4.2598     4.3603     2.9377 H       
  38 H38            6.2053     5.4326    -0.6910 H       
  39 H39            7.0794     5.7250     0.8318 H       
  40 H40            6.7087     4.0598     0.3241 H       
  41 H41            3.4762     6.6190     1.4386 H       
  42 H42            5.1273     7.1943     1.7720 H       
  43 H43            4.5700     7.0143     0.0912 H       
@<TRIPOS>BOND
   1    1    2 2
   2    1   11 1
   3    1    6 1
   4    2    3 1
   5    2   24 1
   6    3    4 2
   7    3   25 1
   8    4    5 1
   9    4   26 1
  10    5    6 1
  11    5    7 1
  12    6   10 2
  13    7    8 1
  14    7   27 1
  15    7   28 1
  16    8    9 1
  17    8   29 1
  18    8   30 1
  19    9   10 am
  20    9   12 2
  21    9   13 2
  22   11   14 ar
  23   11   18 ar
  24   14   15 ar
  25   14   31 1
  26   15   16 ar
  27   15   32 1
  28   16   17 ar
  29   16   19 1
  30   17   18 ar
  31   17   33 1
  32   18   34 1
  33   19   20 1
  34   20   21 1
  35   20   22 1
  36   20   23 1
  37   21   35 1
  38   21   36 1
  39   21   37 1
  40   22   38 1
  41   22   39 1
  42   22   40 1
  43   23   41 1
  44   23   42 1
  45   23   43 1

#	End of record

