#	Name: ASD01901304
#	Creating user name:	WinNT
#	Creation time:	15. 06. 2019 19:53

#	Modifying user name:	WinNT
#	Modification time:	15. 06. 2019 19:53

#	Program:	/corina/corina34_cracker 3.40 0067  02.08.2006

@<TRIPOS>MOLECULE
ASD01901304
  36   39    0    0    0
SMALL
NO_CHARGES


@<TRIPOS>ATOM
   1 C1             0.9238    -0.3752     0.0021 C.ar    
   2 C2             0.0919     0.0194    -1.0297 C.ar    
   3 C3             0.4240     1.1076    -1.8169 C.ar    
   4 C4             1.5890     1.8073    -1.5779 C.ar    
   5 C5             2.4337     1.4164    -0.5396 C.ar    
   6 C6             2.0938     0.3170     0.2528 C.ar    
   7 C7             3.6856     2.1628    -0.2783 C.ar    
   8 N8             4.8330     1.5140    -0.1999 N.ar    
   9 C9             3.6471     3.5706    -0.1195 C.ar    
  10 N10            4.7576     4.2460     0.1134 N.ar    
  11 C11            5.9242     3.5976     0.1996 C.ar    
  12 C12            5.9635     2.1889     0.0357 C.ar    
  13 C13            7.1199     4.2948     0.4463 C.ar    
  14 C14            8.2949     3.6126     0.5293 C.ar    
  15 C15            8.3327     2.2282     0.3732 C.ar    
  16 C16            7.1972     1.5205     0.1229 C.ar    
  17 C17            2.3552     4.2878    -0.2156 C.ar    
  18 C18            1.2665     3.8755     0.5520 C.ar    
  19 C19            0.0651     4.5476     0.4582 C.ar    
  20 C20           -0.0623     5.6292    -0.3951 C.ar    
  21 C21            1.0122     6.0450    -1.1599 C.ar    
  22 C22            2.2232     5.3842    -1.0715 C.ar    
  23 F23            3.2730     5.7908    -1.8184 F       
  24 F24            2.9061    -0.0683     1.2612 F       
  25 H25            0.6567    -1.2227     0.6159 H       
  26 H26           -0.8210    -0.5247    -1.2222 H       
  27 H27           -0.2304     1.4102    -2.6211 H       
  28 H28            1.8464     2.6560    -2.1942 H       
  29 H29            7.1062     5.3677     0.5691 H       
  30 H30            9.2112     4.1521     0.7186 H       
  31 H31            9.2779     1.7104     0.4436 H       
  32 H32            7.2427     0.4484     0.0003 H       
  33 H33            1.3633     3.0312     1.2185 H       
  34 H34           -0.7784     4.2282     1.0523 H       
  35 H35           -1.0053     6.1511    -0.4644 H       
  36 H36            0.9063     6.8898    -1.8244 H       
@<TRIPOS>BOND
   1    1    2 ar
   2    1    6 ar
   3    1   25 1
   4    2    3 ar
   5    2   26 1
   6    3    4 ar
   7    3   27 1
   8    4    5 ar
   9    4   28 1
  10    5    6 ar
  11    5    7 1
  12    6   24 1
  13    7    9 ar
  14    7    8 ar
  15    8   12 ar
  16    9   10 ar
  17    9   17 1
  18   10   11 ar
  19   11   13 ar
  20   11   12 ar
  21   12   16 ar
  22   13   14 ar
  23   13   29 1
  24   14   15 ar
  25   14   30 1
  26   15   16 ar
  27   15   31 1
  28   16   32 1
  29   17   18 ar
  30   17   22 ar
  31   18   19 ar
  32   18   33 1
  33   19   20 ar
  34   19   34 1
  35   20   21 ar
  36   20   35 1
  37   21   22 ar
  38   21   36 1
  39   22   23 1

#	End of record

