#	Name: ASD05130083
#	Creating user name:	WinNT
#	Creation time:	15. 06. 2019 20:56

#	Modifying user name:	WinNT
#	Modification time:	15. 06. 2019 20:56

#	Program:	/corina/corina34_cracker 3.40 0067  02.08.2006

@<TRIPOS>MOLECULE
ASD05130083
  57   60    0    0    0
SMALL
NO_CHARGES


@<TRIPOS>ATOM
   1 N1            -0.1438     1.4192    -0.4404 N.am    
   2 C2             0.0603     0.0935    -0.3091 C.2     
   3 O3             1.1121    -0.3984    -0.6698 O.2     
   4 N4            -0.9016    -0.6871     0.2221 N.am    
   5 C5            -0.7309    -2.0767     0.2663 C.ar    
   6 C6            -1.8399    -2.9162     0.2174 C.ar    
   7 C7            -1.6747    -4.2893     0.2608 C.ar    
   8 C8            -0.4092    -4.8336     0.3524 C.ar    
   9 C9             0.7071    -3.9994     0.4014 C.ar    
  10 C10            0.5421    -2.6160     0.3529 C.ar    
  11 C11           -0.2344    -6.3297     0.3999 C.3     
  12 F12           -3.0806    -2.3892     0.1277 F       
  13 N13            4.1824    -5.1309    -0.5809 N.am    
  14 C14            2.9467    -4.6010    -0.6698 C.2     
  15 C15            2.0659    -4.5823     0.5002 C.2     
  16 C16            2.5060    -5.1061     1.6851 C.2     
  17 C17            3.8079    -5.6563     1.7534 C.ar    
  18 C18            4.2990    -6.2034     2.9452 C.ar    
  19 N19            5.5114    -6.7108     2.9916 N.ar    
  20 C20            6.3124    -6.7290     1.9315 C.ar    
  21 C21            5.9051    -6.2083     0.7114 C.ar    
  22 C22            4.6326    -5.6591     0.6071 C.ar    
  23 O23            2.5603    -4.1366    -1.7276 O.2     
  24 N24            7.5808    -7.2788     2.0469 N.pl3   
  25 C25            8.4756    -7.3061     0.8873 C.3     
  26 C26            5.0519    -5.1487    -1.7598 C.3     
  27 C27            5.8817    -3.8639    -1.8010 C.3     
  28 C28            0.8872     2.2431    -0.9053 C.ar    
  29 C29            1.7622     1.7796    -1.8785 C.ar    
  30 C30            2.7810     2.5958    -2.3368 C.ar    
  31 C31            2.9283     3.8742    -1.8256 C.ar    
  32 C32            2.0569     4.3382    -0.8546 C.ar    
  33 C33            1.0331     3.5273    -0.3981 C.ar    
  34 F34            2.2029     5.5857    -0.3570 F       
  35 F35            3.6330     2.1450    -3.2834 F       
  36 H36           -1.0067     1.8016    -0.2164 H       
  37 H37           -1.7120    -0.2865     0.5738 H       
  38 H38           -2.5381    -4.9370     0.2233 H       
  39 H39            1.4042    -1.9663     0.3869 H       
  40 H40           -0.1288    -6.7155    -0.6140 H       
  41 H41            0.6584    -6.5730     0.9760 H       
  42 H42           -1.1062    -6.7826     0.8721 H       
  43 H43            1.8683    -5.0993     2.5568 H       
  44 H44            3.6797    -6.2083     3.8300 H       
  45 H45            6.5660    -6.2289    -0.1425 H       
  46 H46            7.8753    -7.6451     2.8955 H       
  47 H47            9.4201    -7.7721     1.1680 H       
  48 H48            8.0122    -7.8793     0.0843 H       
  49 H49            8.6602    -6.2873     0.5467 H       
  50 H50            5.7181    -6.0098    -1.7070 H       
  51 H51            4.4416    -5.2161    -2.6604 H       
  52 H52            6.5286    -3.8771    -2.6781 H       
  53 H53            5.2156    -3.0027    -1.8538 H       
  54 H54            6.4920    -3.7965    -0.9004 H       
  55 H55            1.6479     0.7824    -2.2772 H       
  56 H56            3.7240     4.5101    -2.1844 H       
  57 H57            0.3507     3.8913     0.3558 H       
@<TRIPOS>BOND
   1    1    2 am
   2    1   28 1
   3    1   36 1
   4    2    3 2
   5    2    4 am
   6    4    5 1
   7    4   37 1
   8    5    6 ar
   9    5   10 ar
  10    6    7 ar
  11    6   12 1
  12    7    8 ar
  13    7   38 1
  14    8    9 ar
  15    8   11 1
  16    9   10 ar
  17    9   15 1
  18   10   39 1
  19   11   40 1
  20   11   41 1
  21   11   42 1
  22   13   14 am
  23   13   22 1
  24   13   26 1
  25   14   15 1
  26   14   23 2
  27   15   16 2
  28   16   17 1
  29   16   43 1
  30   17   18 ar
  31   17   22 ar
  32   18   19 ar
  33   18   44 1
  34   19   20 ar
  35   20   21 ar
  36   20   24 1
  37   21   22 ar
  38   21   45 1
  39   24   25 1
  40   24   46 1
  41   25   47 1
  42   25   48 1
  43   25   49 1
  44   26   27 1
  45   26   50 1
  46   26   51 1
  47   27   52 1
  48   27   53 1
  49   27   54 1
  50   28   29 ar
  51   28   33 ar
  52   29   30 ar
  53   29   55 1
  54   30   31 ar
  55   30   35 1
  56   31   32 ar
  57   31   56 1
  58   32   33 ar
  59   32   34 1
  60   33   57 1

#	End of record

