#	Name: ASD01883186
#	Creating user name:	WinNT
#	Creation time:	15. 06. 2019 19:45

#	Modifying user name:	WinNT
#	Modification time:	15. 06. 2019 19:45

#	Program:	/corina/corina34_cracker 3.40 0067  02.08.2006

@<TRIPOS>MOLECULE
ASD01883186
  49   51    0    0    0
SMALL
NO_CHARGES


@<TRIPOS>ATOM
   1 N1            -0.1425     1.3453    -1.2881 N.am    
   2 C2            -0.2605     0.0887    -1.7552 C.2     
   3 C3            -1.4626    -0.6321    -1.5487 C.2     
   4 C4            -2.5128    -0.0075    -0.8527 C.2     
   5 C5            -2.3275     1.3098    -0.3887 C.2     
   6 C6            -1.1551     1.9457    -0.6112 C.2     
   7 O7             0.6658    -0.4288    -2.3559 O.2     
   8 C8            -1.6056    -1.9698    -2.0393 C.1     
   9 N9            -1.7190    -3.0310    -2.4285 N.1     
  10 C10            1.1065     2.0785    -1.5091 C.3     
  11 C11            1.0208     2.8452    -2.8304 C.3     
  12 C12            2.3251     3.6109    -3.0612 C.3     
  13 C13            2.2890     4.2763    -4.4384 C.3     
  14 C14            2.4855     4.6825    -1.9810 C.3     
  15 C15           -3.7857    -0.7185    -0.6131 C.ar    
  16 C16           -4.1766    -1.0349     0.6904 C.ar    
  17 C17           -5.3638    -1.6978     0.9096 C.ar    
  18 C18           -6.1724    -2.0524    -0.1638 C.ar    
  19 C19           -5.7867    -1.7399    -1.4621 C.ar    
  20 C20           -4.6042    -1.0712    -1.6890 C.ar    
  21 O21           -7.3416    -2.7061     0.0562 O.3     
  22 C22           -7.3240    -4.0648     0.0487 C.ar    
  23 C23           -6.1197    -4.7437    -0.0710 C.ar    
  24 C24           -6.1046    -6.1249    -0.0779 C.ar    
  25 C25           -7.2882    -6.8311     0.0343 C.ar    
  26 C26           -8.4896    -6.1571     0.1536 C.ar    
  27 C27           -8.5097    -4.7759     0.1664 C.ar    
  28 H28           -3.1199     1.8100     0.1483 H       
  29 H29           -1.0244     2.9553    -0.2505 H       
  30 H30            1.2650     2.7810    -0.6910 H       
  31 H31            1.9382     1.3752    -1.5504 H       
  32 H32            0.8622     2.1426    -3.6485 H       
  33 H33            0.1891     3.5485    -2.7890 H       
  34 H34            3.1659     2.9188    -3.0141 H       
  35 H35            1.4482     4.9684    -4.4856 H       
  36 H36            3.2182     4.8218    -4.6029 H       
  37 H37            2.1747     3.5129    -5.2080 H       
  38 H38            2.5112     4.2084    -0.9999 H       
  39 H39            3.4147     5.2280    -2.1455 H       
  40 H40            1.6447     5.3746    -2.0282 H       
  41 H41           -3.5485    -0.7603     1.5249 H       
  42 H42           -5.6667    -1.9427     1.9170 H       
  43 H43           -6.4173    -2.0177    -2.2937 H       
  44 H44           -4.3053    -0.8284    -2.6980 H       
  45 H45           -5.1951    -4.1926    -0.1590 H       
  46 H46           -5.1676    -6.6538    -0.1714 H       
  47 H47           -7.2742    -7.9110     0.0283 H       
  48 H48           -9.4126    -6.7110     0.2411 H       
  49 H49           -9.4484    -4.2499     0.2600 H       
@<TRIPOS>BOND
   1    1    2 am
   2    1   10 1
   3    1    6 1
   4    2    3 1
   5    2    7 2
   6    3    4 2
   7    3    8 1
   8    4    5 1
   9    4   15 1
  10    5    6 2
  11    5   28 1
  12    6   29 1
  13    8    9 3
  14   10   11 1
  15   10   30 1
  16   10   31 1
  17   11   12 1
  18   11   32 1
  19   11   33 1
  20   12   13 1
  21   12   14 1
  22   12   34 1
  23   13   35 1
  24   13   36 1
  25   13   37 1
  26   14   38 1
  27   14   39 1
  28   14   40 1
  29   15   16 ar
  30   15   20 ar
  31   16   17 ar
  32   16   41 1
  33   17   18 ar
  34   17   42 1
  35   18   19 ar
  36   18   21 1
  37   19   20 ar
  38   19   43 1
  39   20   44 1
  40   21   22 1
  41   22   23 ar
  42   22   27 ar
  43   23   24 ar
  44   23   45 1
  45   24   25 ar
  46   24   46 1
  47   25   26 ar
  48   25   47 1
  49   26   27 ar
  50   26   48 1
  51   27   49 1

#	End of record

