#	Name: ASD01917065
#	Creating user name:	WinNT
#	Creation time:	15. 06. 2019 20:08

#	Modifying user name:	WinNT
#	Modification time:	15. 06. 2019 20:08

#	Program:	/corina/corina34_cracker 3.40 0067  02.08.2006

@<TRIPOS>MOLECULE
ASD01917065
  36   38    0    0    0
SMALL
NO_CHARGES


@<TRIPOS>ATOM
   1 C1            -0.0422     1.4706     0.1501 C.ar    
   2 C2            -0.0084    -0.0060     0.0628 C.2     
   3 N3             1.0563    -0.7654     0.2102 N.2     
   4 C4             0.7166    -2.0514     0.0663 C.2     
   5 N5            -0.5744    -2.1279    -0.1756 N.2     
   6 N6            -1.0684    -0.8134    -0.1770 N.pl3   
   7 C7            -2.4549    -0.3973    -0.4022 C.3     
   8 C8            -3.1967    -0.3907     0.9095 C.2     
   9 O9            -4.4917    -0.0394     0.9464 O.3     
  10 O10           -2.6259    -0.7016     1.9280 O.2     
  11 C11           -5.1425    -0.0558     2.2442 C.3     
  12 C12            1.6453    -3.2044     0.1634 C.ar    
  13 C13            2.9953    -2.9829     0.4253 C.ar    
  14 N14            1.1813    -4.4372     0.0052 N.ar    
  15 C15            1.9714    -5.4881     0.0835 C.ar    
  16 C16            3.8506    -4.0674     0.5133 C.ar    
  17 C17            3.3256    -5.3417     0.3363 C.ar    
  18 F18            4.1265    -6.4269     0.4153 F       
  19 C19           -1.2475     2.1300     0.3931 C.ar    
  20 C20           -1.2737     3.5065     0.4735 C.ar    
  21 C21           -0.1055     4.2347     0.3131 C.ar    
  22 C22            1.0942     3.5845     0.0711 C.ar    
  23 C23            1.1322     2.2079    -0.0044 C.ar    
  24 F24           -0.1364     5.5831     0.3924 F       
  25 H25           -2.4684     0.6041    -0.8323 H       
  26 H26           -2.9363    -1.0940    -1.0885 H       
  27 H27           -4.6324     0.6352     2.9153 H       
  28 H28           -6.1834     0.2478     2.1326 H       
  29 H29           -5.1003    -1.0629     2.6591 H       
  30 H30            3.3696    -1.9785     0.5577 H       
  31 H31            1.5581    -6.4769    -0.0508 H       
  32 H32            4.9022    -3.9265     0.7152 H       
  33 H33           -2.1585     1.5634     0.5175 H       
  34 H34           -2.2062     4.0179     0.6616 H       
  35 H35            2.0018     4.1565    -0.0539 H       
  36 H36            2.0676     1.7021    -0.1930 H       
@<TRIPOS>BOND
   1    1    2 1
   2    1   19 ar
   3    1   23 ar
   4    2    3 2
   5    2    6 1
   6    3    4 1
   7    4    5 2
   8    4   12 1
   9    5    6 1
  10    6    7 1
  11    7    8 1
  12    7   25 1
  13    7   26 1
  14    8    9 1
  15    8   10 2
  16    9   11 1
  17   11   27 1
  18   11   28 1
  19   11   29 1
  20   12   13 ar
  21   12   14 ar
  22   13   16 ar
  23   13   30 1
  24   14   15 ar
  25   15   17 ar
  26   15   31 1
  27   16   17 ar
  28   16   32 1
  29   17   18 1
  30   19   20 ar
  31   19   33 1
  32   20   21 ar
  33   20   34 1
  34   21   22 ar
  35   21   24 1
  36   22   23 ar
  37   22   35 1
  38   23   36 1

#	End of record

