#	Name: ASD01911900
#	Creating user name:	WinNT
#	Creation time:	15. 06. 2019 19:58

#	Modifying user name:	WinNT
#	Modification time:	15. 06. 2019 19:58

#	Program:	/corina/corina34_cracker 3.40 0067  02.08.2006

@<TRIPOS>MOLECULE
ASD01911900
  38   40    0    0    0
SMALL
NO_CHARGES


@<TRIPOS>ATOM
   1 C1            -1.5648     1.3907     0.7335 C.ar    
   2 C2            -1.3500     0.0202     0.8380 C.ar    
   3 C3            -1.2849    -0.5418     2.1089 C.ar    
   4 N4            -1.4287     0.2414     3.1653 N.ar    
   5 C5            -1.6309     1.5361     3.0249 C.ar    
   6 N6            -1.6987     2.1057     1.8384 N.ar    
   7 O7            -1.2077    -0.7498    -0.2728 O.3     
   8 C8            -0.9968    -2.0814    -0.1032 C.ar    
   9 C9            -2.0557    -2.9157     0.2287 C.ar    
  10 C10           -1.8427    -4.2698     0.4015 C.ar    
  11 C11           -0.5757    -4.7982     0.2446 C.ar    
  12 C12            0.4877    -3.9683    -0.0870 C.ar    
  13 C13            0.2746    -2.6085    -0.2671 C.ar    
  14 N14            1.7703    -4.5029    -0.2449 N.am    
  15 C15            2.8517    -3.7672     0.0800 C.2     
  16 C16            4.2085    -4.2909    -0.1844 C.ar    
  17 O17            2.7114    -2.6729     0.5905 O.2     
  18 C18            5.3305    -3.5314     0.1509 C.ar    
  19 C19            6.5945    -4.0257    -0.0978 C.ar    
  20 C20            6.7517    -5.2711    -0.6788 C.ar    
  21 C21            5.6431    -6.0303    -1.0142 C.ar    
  22 C22            4.3731    -5.5495    -0.7652 C.ar    
  23 Cl23           5.8508    -7.5920    -1.7434 Cl      
  24 C24           -2.9944    -5.1722     0.7623 C.3     
  25 F25           -4.1660    -4.4146     0.8655 F       
  26 F26           -3.1538    -6.1446    -0.2308 F       
  27 F27           -2.7327    -5.7953     1.9873 F       
  28 H28           -1.6171     1.8648    -0.2355 H       
  29 H29           -1.1198    -1.6020     2.2314 H       
  30 H30           -1.7446     2.1479     3.9076 H       
  31 H31           -3.0471    -2.5056     0.3524 H       
  32 H32           -0.4120    -5.8570     0.3803 H       
  33 H33            1.0996    -1.9610    -0.5254 H       
  34 H34            1.8815    -5.4032    -0.5883 H       
  35 H35            5.2095    -2.5585     0.6039 H       
  36 H36            7.4631    -3.4386     0.1614 H       
  37 H37            7.7433    -5.6529    -0.8719 H       
  38 H38            3.5090    -6.1421    -1.0270 H       
@<TRIPOS>BOND
   1    1    2 ar
   2    1    6 ar
   3    1   28 1
   4    2    3 ar
   5    2    7 1
   6    3    4 ar
   7    3   29 1
   8    4    5 ar
   9    5    6 ar
  10    5   30 1
  11    7    8 1
  12    8    9 ar
  13    8   13 ar
  14    9   10 ar
  15    9   31 1
  16   10   11 ar
  17   10   24 1
  18   11   12 ar
  19   11   32 1
  20   12   13 ar
  21   12   14 1
  22   13   33 1
  23   14   15 am
  24   14   34 1
  25   15   16 1
  26   15   17 2
  27   16   18 ar
  28   16   22 ar
  29   18   19 ar
  30   18   35 1
  31   19   20 ar
  32   19   36 1
  33   20   21 ar
  34   20   37 1
  35   21   22 ar
  36   21   23 1
  37   22   38 1
  38   24   25 1
  39   24   26 1
  40   24   27 1

#	End of record

