#	Name: ASD09800037
#	Creating user name:	WinNT
#	Creation time:	15. 06. 2019 21:24

#	Modifying user name:	WinNT
#	Modification time:	15. 06. 2019 21:24

#	Program:	/corina/corina34_cracker 3.40 0067  02.08.2006

@<TRIPOS>MOLECULE
ASD09800037
  58   63    0    0    0
SMALL
NO_CHARGES


@<TRIPOS>ATOM
   1 C1            -3.2257     1.2271     2.8730 C.2     
   2 N2            -4.3107     0.5705     3.2414 N.2     
   3 C3            -5.0249    -0.1422     2.3606 C.2     
   4 C4            -4.6706    -0.2216     1.0651 C.2     
   5 C5            -2.8131     1.1830     1.5259 C.2     
   6 C6            -1.7572     1.7347     0.8087 C.2     
   7 N7            -3.5488     0.4414     0.6202 N.pl3   
   8 C8            -2.9487     0.5661    -0.5771 C.2     
   9 N9            -1.8929     1.3311    -0.4652 N.2     
  10 C10           -0.6885     2.6012     1.3462 C.ar    
  11 C11            0.1774     4.8218     1.8934 C.ar    
  12 C12            1.3606     4.2197     2.3737 C.ar    
  13 C13            1.5001     2.8482     2.3288 C.ar    
  14 C14            0.4888     2.0443     1.8209 C.ar    
  15 C15           -0.8575     4.0080     1.3746 C.ar    
  16 N16            2.3895     5.0113     2.8881 N.am    
  17 C17            3.6530     4.5427     2.9112 C.2     
  18 N18            4.6273     5.2608     3.5041 N.am    
  19 O19            3.9138     3.4721     2.3973 O.2     
  20 C20            5.9174     4.7307     3.6166 C.ar    
  21 C21            7.9570     4.4739     4.8511 C.ar    
  22 C22            6.6842     4.9990     4.7429 C.ar    
  23 C23            6.4315     3.9305     2.6048 C.ar    
  24 C24            7.7050     3.4083     2.7190 C.ar    
  25 C25            8.4680     3.6817     3.8394 C.ar    
  26 N26           -2.5027     1.9576     3.8012 N.pl3   
  27 C27           -3.4190    -0.0811    -1.8542 C.3     
  28 C28           -4.8340     0.2486    -2.3339 C.3     
  29 C29           -3.6229     0.8236    -3.0712 C.3     
  30 C30           -2.9000    -1.4982    -2.1059 C.3     
  31 C31            0.0093     6.2155     1.9208 C.ar    
  32 C32           -2.0316     4.6074     0.8975 C.ar    
  33 C33           -2.1622     5.9631     0.9388 C.ar    
  34 C34           -1.1442     6.7649     1.4492 C.ar    
  35 H35           -5.9067    -0.6662     2.6986 H       
  36 H36           -5.2643    -0.8041     0.3761 H       
  37 H37            2.4074     2.3930     2.6977 H       
  38 H38            0.6206     0.9727     1.7957 H       
  39 H39            2.1949     5.8984     3.2287 H       
  40 H40            4.4342     6.1451     3.8528 H       
  41 H41            8.5539     4.6824     5.7266 H       
  42 H42            6.2857     5.6179     5.5332 H       
  43 H43            5.8360     3.7163     1.7296 H       
  44 H44            8.1053     2.7856     1.9326 H       
  45 H45            9.4636     3.2722     3.9264 H       
  46 H46           -2.7384     1.9160     4.7412 H       
  47 H47           -1.7606     2.5109     3.5114 H       
  48 H48           -5.3950    -0.5439    -2.8290 H       
  49 H49           -5.4247     0.9336    -1.7257 H       
  50 H50           -3.4169     1.8868    -2.9481 H       
  51 H51           -3.3872     0.4092    -4.0514 H       
  52 H52           -3.1817    -2.1416    -1.2724 H       
  53 H53           -3.3346    -1.8860    -3.0272 H       
  54 H54           -1.8141    -1.4765    -2.1974 H       
  55 H55            0.7910     6.8488     2.3136 H       
  56 H56           -2.8287     3.9975     0.4988 H       
  57 H57           -3.0676     6.4222     0.5702 H       
  58 H58           -1.2714     7.8371     1.4716 H       
@<TRIPOS>BOND
   1    1    2 2
   2    1   26 1
   3    1    5 1
   4    2    3 1
   5    3    4 2
   6    3   35 1
   7    4    7 1
   8    4   36 1
   9    5    7 1
  10    5    6 2
  11    6    9 1
  12    6   10 1
  13    7    8 1
  14    8    9 2
  15    8   27 1
  16   10   15 ar
  17   10   14 ar
  18   11   12 ar
  19   11   15 ar
  20   11   31 ar
  21   12   13 ar
  22   12   16 1
  23   13   14 ar
  24   13   37 1
  25   14   38 1
  26   15   32 ar
  27   16   17 am
  28   16   39 1
  29   17   18 am
  30   17   19 2
  31   18   20 1
  32   18   40 1
  33   20   23 ar
  34   20   22 ar
  35   21   22 ar
  36   21   25 ar
  37   21   41 1
  38   22   42 1
  39   23   24 ar
  40   23   43 1
  41   24   25 ar
  42   24   44 1
  43   25   45 1
  44   26   46 1
  45   26   47 1
  46   27   28 1
  47   27   29 1
  48   27   30 1
  49   28   29 1
  50   28   48 1
  51   28   49 1
  52   29   50 1
  53   29   51 1
  54   30   52 1
  55   30   53 1
  56   30   54 1
  57   31   34 ar
  58   31   55 1
  59   32   33 ar
  60   32   56 1
  61   33   34 ar
  62   33   57 1
  63   34   58 1

#	End of record

