#	Name: ASD01901168
#	Creating user name:	WinNT
#	Creation time:	15. 06. 2019 19:53

#	Modifying user name:	WinNT
#	Modification time:	15. 06. 2019 19:53

#	Program:	/corina/corina34_cracker 3.40 0067  02.08.2006

@<TRIPOS>MOLECULE
ASD01901168
  51   54    0    0    0
SMALL
NO_CHARGES


@<TRIPOS>ATOM
   1 C1            -0.0157     1.3123     0.0095 C.ar    
   2 N2             0.0021    -0.0041     0.0022 N.ar    
   3 C3             1.1317    -0.6859    -0.0122 C.ar    
   4 C4             2.3557    -0.0416    -0.0204 C.ar    
   5 C5             2.3936     1.3414    -0.0133 C.ar    
   6 C6             1.1782     2.0387     0.0020 C.ar    
   7 C7             1.1598     3.4705     0.0093 C.1     
   8 C8             1.1447     4.6444     0.0153 C.1     
   9 C9             1.1264     6.0763     0.0227 C.ar    
  10 C10            2.3266     6.7923     0.0151 C.ar    
  11 C11            2.3053     8.1714     0.0217 C.ar    
  12 C12            1.0921     8.8498     0.0364 C.ar    
  13 C13           -0.1056     8.1409     0.0445 C.ar    
  14 C14           -0.0923     6.7615     0.0316 C.ar    
  15 N15            1.0749    10.2517     0.0436 N.am    
  16 C16            1.0559    10.9191    -1.1222 C.2     
  17 N17            0.8005    12.2365    -1.1743 N.am    
  18 C18            0.4105    12.9755     0.0280 C.3     
  19 C19            1.1595    12.4142     1.2387 C.3     
  20 C20            1.0721    10.9084     1.2180 C.2     
  21 O21            1.2755    10.3163    -2.1544 O.2     
  22 O22            1.0032    10.2900     2.2585 O.2     
  23 C23            0.9143    12.9442    -2.4519 C.3     
  24 C24            0.7636    14.4536    -0.1496 C.3     
  25 C25           -1.0740    12.8369     0.2473 C.ar    
  26 Cl26           3.7959     9.0613     0.0122 Cl      
  27 C27           -1.6584    13.3735     1.3793 C.ar    
  28 C28           -1.8521    12.1781    -0.6862 C.ar    
  29 C29           -3.2138    12.0510    -0.4849 C.ar    
  30 C30           -3.7973    12.5822     0.6501 C.ar    
  31 C31           -3.0201    13.2464     1.5806 C.ar    
  32 F32           -1.2824     8.8043     0.0592 F       
  33 H33           -0.9607     1.8351     0.0167 H       
  34 H34            1.1000    -1.7654    -0.0173 H       
  35 H35            3.2725    -0.6123    -0.0318 H       
  36 H36            3.3354     1.8699    -0.0191 H       
  37 H37            3.2698     6.2663     0.0043 H       
  38 H38           -1.0219     6.2116     0.0334 H       
  39 H39            2.2041    12.7225     1.1958 H       
  40 H40            0.7050    12.7911     2.1550 H       
  41 H41            1.2123    12.2423    -3.2308 H       
  42 H42           -0.0484    13.3857    -2.7097 H       
  43 H43            1.6636    13.7312    -2.3659 H       
  44 H44            1.8374    14.5541    -0.3079 H       
  45 H45            0.2302    14.8535    -1.0120 H       
  46 H46            0.4748    15.0061     0.7445 H       
  47 H47           -1.0511    13.8918     2.1067 H       
  48 H48           -1.3962    11.7631    -1.5729 H       
  49 H49           -3.8218    11.5369    -1.2145 H       
  50 H50           -4.8612    12.4832     0.8072 H       
  51 H51           -3.4767    13.6653     2.4651 H       
@<TRIPOS>BOND
   1    1    2 ar
   2    1    6 ar
   3    1   33 1
   4    2    3 ar
   5    3    4 ar
   6    3   34 1
   7    4    5 ar
   8    4   35 1
   9    5    6 ar
  10    5   36 1
  11    6    7 1
  12    7    8 3
  13    8    9 1
  14    9   10 ar
  15    9   14 ar
  16   10   11 ar
  17   10   37 1
  18   11   12 ar
  19   11   26 1
  20   12   13 ar
  21   12   15 1
  22   13   14 ar
  23   13   32 1
  24   14   38 1
  25   15   16 am
  26   15   20 am
  27   16   17 am
  28   16   21 2
  29   17   23 1
  30   17   18 1
  31   18   19 1
  32   18   24 1
  33   18   25 1
  34   19   20 1
  35   19   39 1
  36   19   40 1
  37   20   22 2
  38   23   41 1
  39   23   42 1
  40   23   43 1
  41   24   44 1
  42   24   45 1
  43   24   46 1
  44   25   28 ar
  45   25   27 ar
  46   27   31 ar
  47   27   47 1
  48   28   29 ar
  49   28   48 1
  50   29   30 ar
  51   29   49 1
  52   30   31 ar
  53   30   50 1
  54   31   51 1

#	End of record

