#	Name: ASD01881437
#	Creating user name:	WinNT
#	Creation time:	15. 06. 2019 19:42

#	Modifying user name:	WinNT
#	Modification time:	15. 06. 2019 19:42

#	Program:	/corina/corina34_cracker 3.40 0067  02.08.2006

@<TRIPOS>MOLECULE
ASD01881437
  57   62    0    0    0
SMALL
NO_CHARGES


@<TRIPOS>ATOM
   1 C1            -0.3582     1.5722    -0.0660 C.3     
   2 C2             1.1465     9.9935     4.3801 C.ar    
   3 C3             1.3103     8.8967     3.5600 C.ar    
   4 C4            -0.0374    10.1661     5.0834 C.ar    
   5 C5            -1.0629     9.2338     4.9638 C.ar    
   6 C6            -0.9048     8.1343     4.1447 C.ar    
   7 C7             0.2850     7.9596     3.4370 C.ar    
   8 C8             0.4584     6.7810     2.5563 C.2     
   9 C9             0.5916     6.9441     1.1902 C.2     
  10 C10            0.4956     5.4765     3.1065 C.2     
  11 C11            0.6528     4.4069     2.3045 C.2     
  12 N12            0.7795     4.5582     0.9535 N.pl3   
  13 C13            0.7546     5.8070     0.3808 C.2     
  14 C14            0.9460     3.6812    -0.0748 C.2     
  15 N15            1.0087     4.3775    -1.1803 N.2     
  16 N16            0.8977     5.6336    -0.9242 N.2     
  17 C17            1.0411     2.1816     0.0400 C.3     
  18 F18           -2.2140     9.4044     5.6501 F       
  19 O19           -0.1951    11.2477     5.8908 O.3     
  20 C20            0.1074    11.1100     7.2067 C.ar    
  21 C21            0.4919     9.8761     7.7258 C.ar    
  22 C22            0.7917     9.7775     9.0691 C.ar    
  23 N23            0.7175    10.8328     9.8577 N.ar    
  24 C24            0.3572    12.0184     9.4033 C.ar    
  25 C25            0.0467    12.2005     8.0716 C.ar    
  26 C26           -0.4641     0.0460    -0.0900 C.3     
  27 C27           -0.8970     0.8235     1.1547 C.3     
  28 C28           -0.3633    13.5580     7.5615 C.3     
  29 C29            0.2892    13.1889    10.3499 C.3     
  30 C30           -0.6711    13.0832    11.5363 C.3     
  31 C31            0.8389    12.9872    11.7634 C.3     
  32 C32            0.5619     8.3208     0.5779 C.3     
  33 F33            1.8706     8.7901     0.4218 F       
  34 F34           -0.0645     8.2620    -0.6717 F       
  35 F35           -0.1478     9.1883     1.4150 F       
  36 H36           -1.0722     2.1357    -0.6667 H       
  37 H37            1.9424    10.7168     4.4786 H       
  38 H38            2.2321     8.7640     3.0130 H       
  39 H39           -1.7006     7.4102     4.0519 H       
  40 H40            0.3974     5.3393     4.1733 H       
  41 H41            0.6797     3.4168     2.7350 H       
  42 H42            1.4803     1.9180     1.0021 H       
  43 H43            1.6677     1.7948    -0.7636 H       
  44 H44            0.5543     9.0084     7.0858 H       
  45 H45            1.0905     8.8246     9.4802 H       
  46 H46           -1.2480    -0.3944    -0.7061 H       
  47 H47            0.4631    -0.5238    -0.0302 H       
  48 H48           -0.2545     0.7651     2.0333 H       
  49 H49           -1.9656     0.8945     1.3574 H       
  50 H50            0.5212    14.1075     7.2397 H       
  51 H51           -1.0439    13.4390     6.7185 H       
  52 H52           -0.8639    14.1092     8.3576 H       
  53 H53            0.4199    14.1704     9.8941 H       
  54 H54           -1.1719    13.9952    11.8613 H       
  55 H55           -1.2537    12.1670    11.6321 H       
  56 H56            1.2497    12.0078    12.0087 H       
  57 H57            1.3315    13.8359    12.2378 H       
@<TRIPOS>BOND
   1    1   26 1
   2    1   17 1
   3    1   27 1
   4    1   36 1
   5    2    3 ar
   6    2    4 ar
   7    2   37 1
   8    3    7 ar
   9    3   38 1
  10    4    5 ar
  11    4   19 1
  12    5    6 ar
  13    5   18 1
  14    6    7 ar
  15    6   39 1
  16    7    8 1
  17    8    9 2
  18    8   10 1
  19    9   32 1
  20    9   13 1
  21   10   11 2
  22   10   40 1
  23   11   12 1
  24   11   41 1
  25   12   13 1
  26   12   14 1
  27   13   16 2
  28   14   15 2
  29   14   17 1
  30   15   16 1
  31   17   42 1
  32   17   43 1
  33   19   20 1
  34   20   21 ar
  35   20   25 ar
  36   21   22 ar
  37   21   44 1
  38   22   23 ar
  39   22   45 1
  40   23   24 ar
  41   24   25 ar
  42   24   29 1
  43   25   28 1
  44   26   27 1
  45   26   46 1
  46   26   47 1
  47   27   48 1
  48   27   49 1
  49   28   50 1
  50   28   51 1
  51   28   52 1
  52   29   30 1
  53   29   31 1
  54   29   53 1
  55   30   31 1
  56   30   54 1
  57   30   55 1
  58   31   56 1
  59   31   57 1
  60   32   33 1
  61   32   34 1
  62   32   35 1

#	End of record

