#	Name: ASD02030041
#	Creating user name:	WinNT
#	Creation time:	15. 06. 2019 20:14

#	Modifying user name:	WinNT
#	Modification time:	15. 06. 2019 20:14

#	Program:	/corina/corina34_cracker 3.40 0067  02.08.2006

@<TRIPOS>MOLECULE
ASD02030041
  59   63    0    0    0
SMALL
NO_CHARGES


@<TRIPOS>ATOM
   1 O1             0.0021    -0.0041     0.0020 O.2     
   2 C2            -0.0144     1.2143     0.0087 C.2     
   3 O3             1.1495     1.8828     0.0012 O.3     
   4 C4            -1.2515     1.8807     0.0183 C.2     
   5 C5            -1.2805     3.2625     0.0260 C.2     
   6 C6             0.0064     3.9778     0.0237 C.ar    
   7 C7             1.1975     3.2322     0.0080 C.ar    
   8 C8             0.0528     5.3741     0.0316 C.ar    
   9 C9             1.2594     6.0133     0.0298 C.ar    
  10 C10            2.4446     5.2810     0.0200 C.ar    
  11 C11            2.4156     3.8962     0.0057 C.ar    
  12 C12           -2.5635     3.9991     0.0357 C.ar    
  13 C13           -3.4204     3.8998     1.1329 C.ar    
  14 C14           -4.6151     4.5896     1.1359 C.ar    
  15 C15           -4.9645     5.3787     0.0543 C.ar    
  16 C16           -4.1197     5.4812    -1.0367 C.ar    
  17 C17           -2.9195     4.8010    -1.0498 C.ar    
  18 O18            3.6372     5.9297     0.0183 O.3     
  19 C19            3.5987     7.3582     0.0268 C.3     
  20 C20            5.0054     7.8986     0.0234 C.2     
  21 N21            5.2159     9.2298     0.0302 N.am    
  22 O22            5.9481     7.1357     0.0146 O.2     
  23 C23            6.5835     9.7552     0.0269 C.3     
  24 C24            6.5879    11.1620    -0.5746 C.3     
  25 C25            7.1034     9.8115     1.4403 C.2     
  26 O26            8.3441    10.2634     1.6815 O.3     
  27 O27            6.4034     9.4499     2.3563 O.2     
  28 C28            6.1852    11.0895    -2.0250 C.2     
  29 C29            4.8176    11.0799    -2.5499 C.ar    
  30 C30            4.9382    11.0031    -3.9488 C.ar    
  31 N31            6.2859    10.9690    -4.2388 N.pl3   
  32 C32            7.0119    11.0273    -3.0808 C.2     
  33 C33            3.5526    11.1289    -1.9598 C.ar    
  34 C34            2.4264    11.1014    -2.7577 C.ar    
  35 C35            2.5492    11.0248    -4.1428 C.ar    
  36 C36            3.7911    10.9768    -4.7352 C.ar    
  37 O37            1.1922    11.1489    -2.1888 O.3     
  38 H38           -2.1729     1.3173     0.0193 H       
  39 H39           -0.8631     5.9464     0.0389 H       
  40 H40            1.2953     7.0927     0.0356 H       
  41 H41            3.3383     3.3352    -0.0015 H       
  42 H42           -3.1490     3.2839     1.9776 H       
  43 H43           -5.2793     4.5133     1.9841 H       
  44 H44           -5.9009     5.9168     0.0616 H       
  45 H45           -4.3985     6.0982    -1.8781 H       
  46 H46           -2.2609     4.8818    -1.9019 H       
  47 H47            3.0711     7.7127    -0.8587 H       
  48 H48            3.0794     7.7023     0.9212 H       
  49 H49            4.4620     9.8400     0.0372 H       
  50 H50            7.2218     9.1031    -0.5693 H       
  51 H51            5.8819    11.7912    -0.0325 H       
  52 H52            7.5883    11.5876    -0.4961 H       
  53 H53            8.6333    10.2809     2.6041 H       
  54 H54            6.6629    10.9154    -5.1310 H       
  55 H55            8.0904    11.0169    -3.0241 H       
  56 H56            3.4561    11.1877    -0.8858 H       
  57 H57            1.6618    11.0031    -4.7581 H       
  58 H58            3.8747    10.9175    -5.8103 H       
  59 H59            0.8472    12.0446    -2.0717 H       
@<TRIPOS>BOND
   1    1    2 2
   2    2    3 1
   3    2    4 1
   4    3    7 1
   5    4    5 2
   6    4   38 1
   7    5    6 1
   8    5   12 1
   9    6    7 ar
  10    6    8 ar
  11    7   11 ar
  12    8    9 ar
  13    8   39 1
  14    9   10 ar
  15    9   40 1
  16   10   11 ar
  17   10   18 1
  18   11   41 1
  19   12   13 ar
  20   12   17 ar
  21   13   14 ar
  22   13   42 1
  23   14   15 ar
  24   14   43 1
  25   15   16 ar
  26   15   44 1
  27   16   17 ar
  28   16   45 1
  29   17   46 1
  30   18   19 1
  31   19   20 1
  32   19   47 1
  33   19   48 1
  34   20   21 am
  35   20   22 2
  36   21   23 1
  37   21   49 1
  38   23   24 1
  39   23   25 1
  40   23   50 1
  41   24   28 1
  42   24   51 1
  43   24   52 1
  44   25   26 1
  45   25   27 2
  46   26   53 1
  47   28   29 1
  48   28   32 2
  49   29   30 ar
  50   29   33 ar
  51   30   31 1
  52   30   36 ar
  53   31   32 1
  54   31   54 1
  55   32   55 1
  56   33   34 ar
  57   33   56 1
  58   34   35 ar
  59   34   37 1
  60   35   36 ar
  61   35   57 1
  62   36   58 1
  63   37   59 1

#	End of record

