#	Name: ASD01411209
#	Creating user name:	WinNT
#	Creation time:	15. 06. 2019 19:19

#	Modifying user name:	WinNT
#	Modification time:	15. 06. 2019 19:19

#	Program:	/corina/corina34_cracker 3.40 0067  02.08.2006

@<TRIPOS>MOLECULE
ASD01411209
  45   48    0    0    0
SMALL
NO_CHARGES


@<TRIPOS>ATOM
   1 S1            -1.6210     2.7529     1.5546 S.o2    
   2 N2            -1.3519     1.2759     0.8761 N.am    
   3 C3            -0.2271     0.8824     0.4273 C.2     
   4 N4             0.9291     1.6185     0.4823 N.pl3   
   5 C5             1.1096     2.6849     1.4609 C.3     
   6 C6            -0.0645     3.6618     1.3703 C.3     
   7 C7            -0.0952    -0.4909    -0.2109 C.3     
   8 C8             1.2820    -1.0399     0.1699 C.3     
   9 C9             2.3976    -0.1592    -0.3766 C.3     
  10 C10            1.9806     1.3021    -0.4900 C.3     
  11 C11           -1.1737    -1.4047     0.3116 C.ar    
  12 C12           -2.0837    -1.9690    -0.5633 C.ar    
  13 C13           -3.0735    -2.8066    -0.0869 C.ar    
  14 C14           -3.1538    -3.0818     1.2707 C.ar    
  15 C15           -2.2390    -2.5146     2.1464 C.ar    
  16 C16           -1.2480    -1.6818     1.6642 C.ar    
  17 O17           -4.1267    -3.9051     1.7419 O.3     
  18 C18           -4.9330    -4.5226     0.8384 C.ar    
  19 C19           -4.5702    -5.7539     0.3120 C.ar    
  20 C20           -5.3920    -6.3811    -0.6068 C.ar    
  21 C21           -6.5776    -5.7787    -1.0010 C.ar    
  22 C22           -6.9387    -4.5505    -0.4760 C.ar    
  23 C23           -6.1217    -3.9248     0.4465 C.ar    
  24 F24           -7.3802    -6.3915    -1.8986 F       
  25 F25           -5.0398    -7.5799    -1.1205 F       
  26 O26           -2.6314     3.3301     0.7390 O.2     
  27 O27           -1.8679     2.4654     2.9241 O.2     
  28 H28            1.1496     2.2564     2.4623 H       
  29 H29            2.0398     3.2143     1.2543 H       
  30 H30           -0.0478     4.1612     0.4016 H       
  31 H31            0.0187     4.4045     2.1637 H       
  32 H32           -0.1735    -0.4052    -1.2947 H       
  33 H33            1.3612    -1.0834     1.2562 H       
  34 H34            1.3901    -2.0459    -0.2356 H       
  35 H35            3.2601    -0.2298     0.2862 H       
  36 H36            2.6827    -0.5226    -1.3639 H       
  37 H37            1.6078     1.4920    -1.4965 H       
  38 H38            2.8459     1.9379    -0.3026 H       
  39 H39           -2.0208    -1.7544    -1.6199 H       
  40 H40           -3.7845    -3.2465    -0.7706 H       
  41 H41           -2.2995    -2.7270     3.2036 H       
  42 H42           -0.5330    -1.2436     2.3448 H       
  43 H43           -3.6468    -6.2222     0.6192 H       
  44 H44           -7.8619    -4.0824    -0.7841 H       
  45 H45           -6.4068    -2.9684     0.8592 H       
@<TRIPOS>BOND
   1    1    2 am
   2    1    6 1
   3    1   26 2
   4    1   27 2
   5    2    3 2
   6    3    4 1
   7    3    7 1
   8    4    5 1
   9    4   10 1
  10    5    6 1
  11    5   28 1
  12    5   29 1
  13    6   30 1
  14    6   31 1
  15    7    8 1
  16    7   11 1
  17    7   32 1
  18    8    9 1
  19    8   33 1
  20    8   34 1
  21    9   10 1
  22    9   35 1
  23    9   36 1
  24   10   37 1
  25   10   38 1
  26   11   12 ar
  27   11   16 ar
  28   12   13 ar
  29   12   39 1
  30   13   14 ar
  31   13   40 1
  32   14   15 ar
  33   14   17 1
  34   15   16 ar
  35   15   41 1
  36   16   42 1
  37   17   18 1
  38   18   19 ar
  39   18   23 ar
  40   19   20 ar
  41   19   43 1
  42   20   21 ar
  43   20   25 1
  44   21   22 ar
  45   21   24 1
  46   22   23 ar
  47   22   44 1
  48   23   45 1

#	End of record

