#	Name: ASD05062003
#	Creating user name:	WinNT
#	Creation time:	15. 06. 2019 20:56

#	Modifying user name:	WinNT
#	Modification time:	15. 06. 2019 20:56

#	Program:	/corina/corina34_cracker 3.40 0067  02.08.2006

@<TRIPOS>MOLECULE
ASD05062003
  40   43    0    0    0
SMALL
NO_CHARGES


@<TRIPOS>ATOM
   1 C1             0.3787     3.6943     0.9034 C.ar    
   2 C2            -0.2188     2.4497     0.7641 C.ar    
   3 C3             0.5392     1.3338     0.4814 C.ar    
   4 C4             1.9183     1.4512     0.3333 C.ar    
   5 C5             2.5196     2.7148     0.4754 C.ar    
   6 C6             1.7303     3.8342     0.7625 C.ar    
   7 N7             2.6842     0.3387     0.0508 N.am    
   8 C8             4.0174     0.4187    -0.0981 C.2     
   9 C9             4.7123     1.6984     0.0348 C.2     
  10 C10            3.9719     2.8456     0.3206 C.2     
  11 C11            2.0272    -0.9631    -0.0899 C.3     
  12 O12            4.5771     4.0461     0.4509 O.3     
  13 C13            6.1729     1.7749    -0.1296 C.2     
  14 C14            7.0636     1.2853     0.9426 C.2     
  15 N15            6.6855     2.2794    -1.2319 N.2     
  16 C16            8.0328     2.4695    -1.3329 C.ar    
  17 C17            8.7557     1.8472    -2.3554 C.ar    
  18 C18           10.1171     2.0442    -2.4508 C.ar    
  19 C19           10.7682     2.8555    -1.5378 C.ar    
  20 C20           10.0598     3.4745    -0.5227 C.ar    
  21 C21            8.6970     3.2923    -0.4178 C.ar    
  22 O22            4.6558    -0.5888    -0.3467 O.2     
  23 N23            6.9596     1.5358     2.2352 N.2     
  24 N24            7.9246     0.9288     2.8349 N.2     
  25 N25            8.6441     0.2981     1.9748 N.2     
  26 N26            8.1518     0.4814     0.7964 N.pl3   
  27 H27           -0.2299     4.5597     1.1205 H       
  28 H28           -1.2885     2.3544     0.8786 H       
  29 H29            0.0640     0.3698     0.3754 H       
  30 H30            2.1884     4.8060     0.8719 H       
  31 H31            1.7413    -1.1151    -1.1307 H       
  32 H32            2.7140    -1.7518     0.2171 H       
  33 H33            1.1374    -0.9909     0.5390 H       
  34 H34            5.5423     4.0069     0.4065 H       
  35 H35            8.2491     1.2136    -3.0684 H       
  36 H36           10.6769     1.5640    -3.2397 H       
  37 H37           11.8347     3.0060    -1.6177 H       
  38 H38           10.5749     4.1059     0.1861 H       
  39 H39            8.1455     3.7760     0.3749 H       
  40 H40            8.4956     0.1203    -0.0357 H       
@<TRIPOS>BOND
   1    1    2 ar
   2    1    6 ar
   3    1   27 1
   4    2    3 ar
   5    2   28 1
   6    3    4 ar
   7    3   29 1
   8    4    5 ar
   9    4    7 1
  10    5    6 ar
  11    5   10 1
  12    6   30 1
  13    7    8 am
  14    7   11 1
  15    8    9 1
  16    8   22 2
  17    9   10 2
  18    9   13 1
  19   10   12 1
  20   11   31 1
  21   11   32 1
  22   11   33 1
  23   12   34 1
  24   13   14 1
  25   13   15 2
  26   14   23 2
  27   14   26 1
  28   15   16 1
  29   16   17 ar
  30   16   21 ar
  31   17   18 ar
  32   17   35 1
  33   18   19 ar
  34   18   36 1
  35   19   20 ar
  36   19   37 1
  37   20   21 ar
  38   20   38 1
  39   21   39 1
  40   23   24 1
  41   24   25 2
  42   25   26 1
  43   26   40 1

#	End of record

