#	Name: ASD01810339
#	Creating user name:	WinNT
#	Creation time:	15. 06. 2019 19:24

#	Modifying user name:	WinNT
#	Modification time:	15. 06. 2019 19:24

#	Program:	/corina/corina34_cracker 3.40 0067  02.08.2006

@<TRIPOS>MOLECULE
ASD01810339
  40   43    0    0    0
SMALL
NO_CHARGES


@<TRIPOS>ATOM
   1 C1            -0.0167     1.3838     0.0097 C.ar    
   2 C2             0.0021    -0.0041     0.0020 C.ar    
   3 C3             1.1953    -0.6918    -0.0126 C.ar    
   4 C4             2.3992     0.0098    -0.0203 C.ar    
   5 C5             2.3716     1.4150    -0.0129 C.ar    
   6 C6             1.1520     2.0926     0.0023 C.ar    
   7 N7             3.6014    -0.6604    -0.0344 N.pl3   
   8 C8             4.7863    -0.0260    -0.0413 C.2     
   9 C9             4.8833     1.3456    -0.0353 C.2     
  10 C10            3.6512     2.1464    -0.0212 C.2     
  11 O11            3.6861     3.3651    -0.0158 O.2     
  12 C12            6.2059     2.0041    -0.0434 C.2     
  13 C13            3.5890    -2.1253    -0.0416 C.3     
  14 C14            3.5720    -2.6205    -1.4648 C.ar    
  15 C15            4.7622    -2.8574    -2.1273 C.ar    
  16 C16            4.7494    -3.3114    -3.4320 C.ar    
  17 C17            3.5408    -3.5296    -4.0774 C.ar    
  18 C18            2.3480    -3.2911    -3.4104 C.ar    
  19 C19            2.3662    -2.8426    -2.1040 C.ar    
  20 N20            6.4422     3.3402    -0.0387 N.pl3   
  21 N21            7.8422     3.4670    -0.0501 N.2     
  22 N22            8.3263     2.2725    -0.0603 N.2     
  23 N23            7.3794     1.4051    -0.0507 N.2     
  24 O24            3.5255    -3.9757    -5.3610 O.3     
  25 C25            2.2451    -4.1781    -5.9623 C.3     
  26 H26           -0.9614     1.9073     0.0169 H       
  27 H27           -0.9293    -0.5508     0.0079 H       
  28 H28            1.1978    -1.7717    -0.0177 H       
  29 H29            1.1315     3.1724     0.0076 H       
  30 H30            5.6926    -0.6132    -0.0516 H       
  31 H31            4.4804    -2.4988     0.4624 H       
  32 H32            2.7006    -2.4837     0.4784 H       
  33 H33            5.7028    -2.6871    -1.6246 H       
  34 H34            5.6793    -3.4960    -3.9492 H       
  35 H35            1.4059    -3.4602    -3.9107 H       
  36 H36            1.4379    -2.6568    -1.5843 H       
  37 H37            5.7860     4.0545    -0.0298 H       
  38 H38            1.6871    -4.9180    -5.3884 H       
  39 H39            1.6957    -3.2367    -5.9728 H       
  40 H40            2.3757    -4.5340    -6.9842 H       
@<TRIPOS>BOND
   1    1    2 ar
   2    1    6 ar
   3    1   26 1
   4    2    3 ar
   5    2   27 1
   6    3    4 ar
   7    3   28 1
   8    4    5 ar
   9    4    7 1
  10    5    6 ar
  11    5   10 1
  12    6   29 1
  13    7    8 1
  14    7   13 1
  15    8    9 2
  16    8   30 1
  17    9   10 1
  18    9   12 1
  19   10   11 2
  20   12   20 1
  21   12   23 2
  22   13   14 1
  23   13   31 1
  24   13   32 1
  25   14   15 ar
  26   14   19 ar
  27   15   16 ar
  28   15   33 1
  29   16   17 ar
  30   16   34 1
  31   17   24 1
  32   17   18 ar
  33   18   19 ar
  34   18   35 1
  35   19   36 1
  36   20   21 1
  37   20   37 1
  38   21   22 2
  39   22   23 1
  40   24   25 1
  41   25   38 1
  42   25   39 1
  43   25   40 1

#	End of record

