#	Name: ASD02320019
#	Creating user name:	WinNT
#	Creation time:	15. 06. 2019 20:20

#	Modifying user name:	WinNT
#	Modification time:	15. 06. 2019 20:20

#	Program:	/corina/corina34_cracker 3.40 0067  02.08.2006

@<TRIPOS>MOLECULE
ASD02320019
  55   57    0    0    0
SMALL
NO_CHARGES


@<TRIPOS>ATOM
   1 C1             0.0267     1.1770     0.2922 C.ar    
   2 C2             0.0795    -0.1702    -0.0516 C.ar    
   3 C3            -1.0854    -0.8449    -0.3720 C.ar    
   4 C4            -2.3044    -0.1858    -0.3526 C.ar    
   5 C5            -2.3603     1.1530    -0.0070 C.ar    
   6 C6            -1.1915     1.8328     0.3188 C.ar    
   7 C7            -3.5486    -0.9549    -0.7190 C.3     
   8 C8            -4.7852    -0.2044    -0.2187 C.3     
   9 C9            -4.6602     1.2654    -0.6396 C.3     
  10 O10           -3.5368     1.8329     0.0355 O.3     
  11 C11           -5.9124     2.0113    -0.2567 C.ar    
  12 C12           -6.0448     2.5275     1.0185 C.ar    
  13 C13           -7.1920     3.2127     1.3747 C.ar    
  14 C14           -8.2113     3.3835     0.4524 C.ar    
  15 C15           -8.0777     2.8640    -0.8321 C.ar    
  16 C16           -6.9240     2.1828    -1.1838 C.ar    
  17 O17           -9.3402     4.0567     0.8012 O.3     
  18 S18          -10.4216     3.1772     1.4125 S.o2    
  19 O19          -11.5624     4.0064     1.5864 O.2     
  20 O20          -10.4414     1.9778     0.6508 O.2     
  21 O21           -9.9533     2.7922     2.8086 O.3     
  22 Na22         -10.0970     4.2603     4.1442 Du      
  23 O23            1.1683     1.8459     0.6064 O.3     
  24 S24            1.8523     2.4977    -0.5868 S.o2    
  25 O25            3.1089     2.9695    -0.1205 O.2     
  26 O26            1.7167     1.5904    -1.6720 O.2     
  27 O27            1.0394     3.7311    -0.9536 O.3     
  28 Na28           1.2860     5.2631     0.2923 Du      
  29 O29            1.2735    -0.8224    -0.0730 O.3     
  30 S30            1.6510    -1.4665     1.2533 S.o2    
  31 O31            2.9905    -1.9193     1.1126 O.2     
  32 O32            1.2386    -0.5632     2.2698 O.2     
  33 O33            0.7905    -2.7121     1.4103 O.3     
  34 Na34           1.3591    -4.2381     0.2666 Du      
  35 O35           -5.9610    -0.7730    -0.7987 O.3     
  36 S36           -6.6401    -1.8170     0.0762 S.o2    
  37 O37           -7.6530    -2.4127    -0.7227 O.2     
  38 O38           -5.5991    -2.5615     0.6938 O.2     
  39 O39           -7.3564    -1.0717     1.1933 O.3     
  40 Na40          -9.0293    -0.1615     0.6160 Du      
  41 O41           -9.0759     3.0286    -1.7409 O.3     
  42 S42           -8.8831     4.2246    -2.6623 S.o2    
  43 O43          -10.0748     4.3373    -3.4281 O.2     
  44 O44           -8.3768     5.2771    -1.8530 O.2     
  45 O45           -7.7752     3.8647    -3.6419 O.3     
  46 Na46          -8.3352     2.5915    -5.0651 Du      
  47 H47           -1.0444    -1.8906    -0.6390 H       
  48 H48           -1.2339     2.8784     0.5857 H       
  49 H49           -3.6030    -1.0619    -1.8023 H       
  50 H50           -3.5131    -1.9425    -0.2590 H       
  51 H51           -4.8414    -0.2720     0.8677 H       
  52 H52           -4.5105     1.3272    -1.7175 H       
  53 H53           -5.2508     2.3951     1.7385 H       
  54 H54           -7.2933     3.6145     2.3721 H       
  55 H55           -6.8179     1.7787    -2.1798 H       
@<TRIPOS>BOND
   1    1    2 ar
   2    1   23 1
   3    1    6 ar
   4    2    3 ar
   5    2   29 1
   6    3    4 ar
   7    3   47 1
   8    4    5 ar
   9    4    7 1
  10    5    6 ar
  11    5   10 1
  12    6   48 1
  13    7    8 1
  14    7   49 1
  15    7   50 1
  16    8    9 1
  17    8   35 1
  18    8   51 1
  19    9   10 1
  20    9   11 1
  21    9   52 1
  22   11   12 ar
  23   11   16 ar
  24   12   13 ar
  25   12   53 1
  26   13   14 ar
  27   13   54 1
  28   14   15 ar
  29   14   17 1
  30   15   16 ar
  31   15   41 1
  32   16   55 1
  33   17   18 1
  34   18   19 2
  35   18   20 2
  36   18   21 1
  37   21   22 1
  38   23   24 1
  39   24   25 2
  40   24   26 2
  41   24   27 1
  42   27   28 1
  43   29   30 1
  44   30   31 2
  45   30   32 2
  46   30   33 1
  47   33   34 1
  48   35   36 1
  49   36   37 2
  50   36   38 2
  51   36   39 1
  52   39   40 1
  53   41   42 1
  54   42   43 2
  55   42   44 2
  56   42   45 1
  57   45   46 1

#	End of record

