#	Name: ASD03331040
#	Creating user name:	WinNT
#	Creation time:	15. 06. 2019 20:38

#	Modifying user name:	WinNT
#	Modification time:	15. 06. 2019 20:38

#	Program:	/corina/corina34_cracker 3.40 0067  02.08.2006

@<TRIPOS>MOLECULE
ASD03331040
  68   71    0    0    0
SMALL
NO_CHARGES


@<TRIPOS>ATOM
   1 N1            -0.5045     1.6137     0.0656 N.pl3   
   2 C2            -0.3425     0.2641     0.0966 C.2     
   3 C3             0.9743    -0.4596     0.2032 C.3     
   4 N4             1.7742     0.1503     1.2769 N.3     
   5 C5             2.5899     1.2547     0.7685 C.3     
   6 C6             1.8703     1.9914    -0.3576 C.3     
   7 C7             0.5706     2.6042     0.1712 C.3     
   8 C8            -1.8395     1.8620    -0.0682 C.2     
   9 N9            -2.4777     0.7157    -0.1003 N.2     
  10 C10           -1.5824    -0.2909     0.0022 C.2     
  11 C11           -1.8921    -1.7316     0.0098 C.2     
  12 O12           -0.9942    -2.5461     0.1074 O.2     
  13 N13           -3.1704    -2.1466    -0.0914 N.am    
  14 C14            2.6089    -0.8554     1.9476 C.3     
  15 C15           -4.7859    -3.8153    -0.7947 C.2     
  16 C16           -3.4783    -3.5788    -0.0838 C.3     
  17 C17           -3.5875    -4.0693     1.3613 C.3     
  18 C18           -4.0363    -5.5320     1.3709 C.3     
  19 O19           -5.6847    -3.0070    -0.6959 O.2     
  20 C20           -2.2239    -3.9498     2.0449 C.3     
  21 C21           -4.6114    -3.2167     2.1133 C.3     
  22 N22           -4.9564    -4.9250    -1.5404 N.am    
  23 C23           -6.2089    -5.3355    -2.1917 C.3     
  24 C24           -5.9353    -6.6746    -2.9081 C.3     
  25 C25           -4.6998    -7.2281    -2.1502 C.3     
  26 C26           -3.9163    -5.9249    -1.8433 C.3     
  27 C27           -7.2636    -5.5150    -1.1806 C.1     
  28 N28           -8.0774    -5.6535    -0.4003 N.1     
  29 C29           -2.4633     3.1999    -0.1612 C.ar    
  30 C30           -3.4201     3.4613    -1.1456 C.ar    
  31 C31           -3.9992     4.7137    -1.2262 C.ar    
  32 C32           -3.6334     5.7061    -0.3354 C.ar    
  33 C33           -2.6857     5.4530     0.6418 C.ar    
  34 C34           -2.1035     4.2045     0.7371 C.ar    
  35 F35           -3.7778     2.4924    -2.0166 F       
  36 Cl36          -2.2330     6.7066     1.7542 Cl      
  37 H37            0.7953    -1.5098     0.4338 H       
  38 H38            1.5116    -0.3795    -0.7418 H       
  39 H39            2.7935     1.9529     1.5804 H       
  40 H40            3.5334     0.8594     0.3922 H       
  41 H41            2.5137     2.7827    -0.7422 H       
  42 H42            1.6402     1.2906    -1.1601 H       
  43 H43            0.3153     3.4836    -0.4201 H       
  44 H44            0.7010     2.8906     1.2148 H       
  45 H45           -3.8865    -1.4969    -0.1692 H       
  46 H46            3.2353    -1.3578     1.2105 H       
  47 H47            3.2411    -0.3668     2.6891 H       
  48 H48            1.9698    -1.5876     2.4409 H       
  49 H49           -2.6838    -4.1240    -0.5935 H       
  50 H50           -3.2679    -6.1509     0.9078 H       
  51 H51           -4.1937    -5.8570     2.3993 H       
  52 H52           -4.9672    -5.6300     0.8124 H       
  53 H53           -1.9041    -2.9078     2.0381 H       
  54 H54           -2.3017    -4.2993     3.0744 H       
  55 H55           -1.4944    -4.5573     1.5091 H       
  56 H56           -5.5829    -3.3019     1.6263 H       
  57 H57           -4.6892    -3.5662     3.1428 H       
  58 H58           -4.2917    -2.1747     2.1065 H       
  59 H59           -6.5133    -4.5819    -2.9181 H       
  60 H60           -6.7856    -7.3486    -2.8038 H       
  61 H61           -5.7002    -6.5086    -3.9595 H       
  62 H62           -4.9989    -7.7336    -1.2319 H       
  63 H63           -4.1157    -7.8922    -2.7874 H       
  64 H64           -3.3344    -5.6159    -2.7116 H       
  65 H65           -3.2653    -6.0683    -0.9808 H       
  66 H66           -4.7386     4.9177    -1.9866 H       
  67 H67           -4.0888     6.6832    -0.4024 H       
  68 H68           -1.3680     4.0074     1.5030 H       
@<TRIPOS>BOND
   1    1    2 1
   2    1    7 1
   3    1    8 1
   4    2    3 1
   5    2   10 2
   6    3    4 1
   7    3   37 1
   8    3   38 1
   9    4    5 1
  10    4   14 1
  11    5    6 1
  12    5   39 1
  13    5   40 1
  14    6    7 1
  15    6   41 1
  16    6   42 1
  17    7   43 1
  18    7   44 1
  19    8    9 2
  20    8   29 1
  21    9   10 1
  22   10   11 1
  23   11   12 2
  24   11   13 am
  25   13   16 1
  26   13   45 1
  27   14   46 1
  28   14   47 1
  29   14   48 1
  30   15   19 2
  31   15   22 am
  32   15   16 1
  33   16   17 1
  34   16   49 1
  35   17   18 1
  36   17   20 1
  37   17   21 1
  38   18   50 1
  39   18   51 1
  40   18   52 1
  41   20   53 1
  42   20   54 1
  43   20   55 1
  44   21   56 1
  45   21   57 1
  46   21   58 1
  47   22   23 1
  48   22   26 1
  49   23   24 1
  50   23   27 1
  51   23   59 1
  52   24   25 1
  53   24   60 1
  54   24   61 1
  55   25   26 1
  56   25   62 1
  57   25   63 1
  58   26   64 1
  59   26   65 1
  60   27   28 3
  61   29   30 ar
  62   29   34 ar
  63   30   31 ar
  64   30   35 1
  65   31   32 ar
  66   31   66 1
  67   32   33 ar
  68   32   67 1
  69   33   34 ar
  70   33   36 1
  71   34   68 1

#	End of record

