#	Name: ASD00990052
#	Creating user name:	WinNT
#	Creation time:	15. 06. 2019 18:54

#	Modifying user name:	WinNT
#	Modification time:	15. 06. 2019 18:54

#	Program:	/corina/corina34_cracker 3.40 0067  02.08.2006

@<TRIPOS>MOLECULE
ASD00990052
  41   42    0    0    0
SMALL
NO_CHARGES


@<TRIPOS>ATOM
   1 C1            -0.0170     1.4006     0.0097 C.ar    
   2 C2             0.0021    -0.0041     0.0020 C.ar    
   3 C3            -1.1910    -0.7135     0.0103 C.ar    
   4 C4            -2.3914    -0.0366     0.0260 C.ar    
   5 C5            -2.4162     1.3521     0.0333 C.ar    
   6 C6            -1.2426     2.0721     0.0301 C.ar    
   7 N7             1.2763     1.8141    -0.0004 N.2     
   8 C8             2.0661     0.7802    -0.0135 C.2     
   9 N9             1.3348    -0.3667    -0.0127 N.pl3   
  10 C10            3.5717     0.8440    -0.0280 C.3     
  11 N11            4.0409     0.9926    -1.4078 N.am    
  12 C12            4.2231     2.3291    -1.9796 C.3     
  13 C13           -3.6858    -0.8084     0.0350 C.3     
  14 Cl14          -3.9385     2.1864     0.0520 Cl      
  15 O15            4.7361     0.0365    -3.4193 O.3     
  16 C16            5.0006    -1.1837    -4.1607 C.3     
  17 C17            3.7189    -2.0145    -4.2495 C.3     
  18 C18            5.4782    -0.8304    -5.5706 C.3     
  19 C19            6.0836    -1.9919    -3.4430 C.3     
  20 C20            4.3049    -0.1001    -2.1512 C.2     
  21 O21            4.1537    -1.2086    -1.6770 O.2     
  22 H22           -1.1787    -1.7934     0.0040 H       
  23 H23           -1.2690     3.1517     0.0358 H       
  24 H24            1.6843    -1.2715    -0.0209 H       
  25 H25            3.9049     1.6972     0.5630 H       
  26 H26            3.9783    -0.0735     0.3972 H       
  27 H27            5.2409     2.6698    -1.7897 H       
  28 H28            4.0473     2.2914    -3.0547 H       
  29 H29            3.5168     3.0204    -1.5199 H       
  30 H30           -3.9874    -0.9999     1.0647 H       
  31 H31           -4.4587    -0.2273    -0.4679 H       
  32 H32           -3.5473    -1.7561    -0.4854 H       
  33 H33            2.9475    -1.4387    -4.7608 H       
  34 H34            3.9175    -2.9304    -4.8060 H       
  35 H35            3.3787    -2.2662    -3.2450 H       
  36 H36            6.3913    -0.2385    -5.5073 H       
  37 H37            5.6768    -1.7463    -6.1272 H       
  38 H38            4.7067    -0.2546    -6.0819 H       
  39 H39            5.7433    -2.2436    -2.4385 H       
  40 H40            6.2821    -2.9078    -3.9995 H       
  41 H41            6.9967    -1.4000    -3.3797 H       
@<TRIPOS>BOND
   1    1    2 ar
   2    1    7 1
   3    1    6 ar
   4    2    3 ar
   5    2    9 1
   6    3    4 ar
   7    3   22 1
   8    4    5 ar
   9    4   13 1
  10    5    6 ar
  11    5   14 1
  12    6   23 1
  13    7    8 2
  14    8    9 1
  15    8   10 1
  16    9   24 1
  17   10   11 1
  18   10   25 1
  19   10   26 1
  20   11   12 1
  21   11   20 am
  22   12   27 1
  23   12   28 1
  24   12   29 1
  25   13   30 1
  26   13   31 1
  27   13   32 1
  28   15   16 1
  29   15   20 1
  30   16   17 1
  31   16   18 1
  32   16   19 1
  33   17   33 1
  34   17   34 1
  35   17   35 1
  36   18   36 1
  37   18   37 1
  38   18   38 1
  39   19   39 1
  40   19   40 1
  41   19   41 1
  42   20   21 2

#	End of record

