#	Name: ASD00170934
#	Creating user name:	WinNT
#	Creation time:	15. 06. 2019 18:32

#	Modifying user name:	WinNT
#	Modification time:	15. 06. 2019 18:32

#	Program:	/corina/corina34_cracker 3.40 0067  02.08.2006

@<TRIPOS>MOLECULE
ASD00170934
  49   53    0    0    0
SMALL
NO_CHARGES


@<TRIPOS>ATOM
   1 C1            -1.5883    -1.3531    -3.6453 C.ar    
   2 C2            -1.0544    -1.8418    -2.4643 C.ar    
   3 C3            -1.7255    -1.6595    -1.2736 C.ar    
   4 C4            -2.9454    -0.9807    -1.2600 C.ar    
   5 C5            -3.4785    -0.4904    -2.4535 C.ar    
   6 C6            -2.7956    -0.6743    -3.6373 C.ar    
   7 C7            -3.6703    -0.7823     0.0136 C.2     
   8 O8            -3.2535    -1.2930     1.0374 O.2     
   9 C9            -4.8881     0.0275     0.0435 C.2     
  10 C10           -6.2202    -0.5210    -0.1001 C.2     
  11 C11           -7.1716     0.3977    -0.0411 C.2     
  12 S12           -6.4862     1.9954     0.1951 S.3     
  13 C13           -4.8922     1.3922     0.2171 C.2     
  14 N14           -3.7615     2.1667     0.3795 N.pl3   
  15 C15           -6.4961    -1.9894    -0.2969 C.3     
  16 N16           -6.4267    -2.6786     0.9985 N.3     
  17 Cl17          -0.7373    -1.5861    -5.1404 Cl      
  18 C18           -7.5109    -2.2350     1.8910 C.3     
  19 C19           -7.4651    -3.0790     3.1438 C.2     
  20 N20           -6.7626    -4.2638     3.2337 N.pl3   
  21 C21           -5.9921    -4.8228     2.1122 C.3     
  22 C22           -6.4522    -4.1371     0.8211 C.3     
  23 C23           -8.0748    -2.8155     4.3099 C.2     
  24 C24           -7.7425    -3.9032     5.2149 C.ar    
  25 C25           -6.9111    -4.7880     4.4833 C.ar    
  26 C26           -8.0900    -4.1611     6.5446 C.ar    
  27 C27           -7.5818    -5.3198     7.1074 C.ar    
  28 C28           -6.7675    -6.1853     6.3914 C.ar    
  29 C29           -6.4133    -5.9476     5.0753 C.ar    
  30 F30           -7.8871    -5.6155     8.3898 F       
  31 H31           -0.1108    -2.3671    -2.4761 H       
  32 H32           -1.3085    -2.0413    -0.3534 H       
  33 H33           -4.4220     0.0351    -2.4491 H       
  34 H34           -3.2070    -0.2955    -4.5612 H       
  35 H35           -8.2283     0.1914    -0.1268 H       
  36 H36           -3.8362     3.1333     0.4118 H       
  37 H37           -2.8920     1.7445     0.4613 H       
  38 H38           -7.4905    -2.1182    -0.7242 H       
  39 H39           -5.7526    -2.4113    -0.9732 H       
  40 H40           -7.3688    -1.1856     2.1490 H       
  41 H41           -8.4725    -2.3654     1.3946 H       
  42 H42           -4.9294    -4.6371     2.2681 H       
  43 H43           -6.1714    -5.8956     2.0421 H       
  44 H44           -7.4670    -4.4558     0.5830 H       
  45 H45           -5.7848    -4.4148     0.0053 H       
  46 H46           -8.6936    -1.9590     4.5332 H       
  47 H47           -8.7233    -3.4895     7.1052 H       
  48 H48           -6.3974    -7.0755     6.8782 H       
  49 H49           -5.7786    -6.6306     4.5303 H       
@<TRIPOS>BOND
   1    1    2 ar
   2    1   17 1
   3    1    6 ar
   4    2    3 ar
   5    2   31 1
   6    3    4 ar
   7    3   32 1
   8    4    5 ar
   9    4    7 1
  10    5    6 ar
  11    5   33 1
  12    6   34 1
  13    7    8 2
  14    7    9 1
  15    9   10 1
  16    9   13 2
  17   10   11 2
  18   10   15 1
  19   11   12 1
  20   11   35 1
  21   12   13 1
  22   13   14 1
  23   14   36 1
  24   14   37 1
  25   15   16 1
  26   15   38 1
  27   15   39 1
  28   16   18 1
  29   16   22 1
  30   18   19 1
  31   18   40 1
  32   18   41 1
  33   19   20 1
  34   19   23 2
  35   20   21 1
  36   20   25 1
  37   21   22 1
  38   21   42 1
  39   21   43 1
  40   22   44 1
  41   22   45 1
  42   23   24 1
  43   23   46 1
  44   24   25 ar
  45   24   26 ar
  46   25   29 ar
  47   26   27 ar
  48   26   47 1
  49   27   28 ar
  50   27   30 1
  51   28   29 ar
  52   28   48 1
  53   29   49 1

#	End of record

