#	Name: ASD01440004
#	Creating user name:	WinNT
#	Creation time:	15. 06. 2019 19:20

#	Modifying user name:	WinNT
#	Modification time:	15. 06. 2019 19:20

#	Program:	/corina/corina34_cracker 3.40 0067  02.08.2006

@<TRIPOS>MOLECULE
ASD01440004
  47   48    0    0    0
SMALL
NO_CHARGES


@<TRIPOS>ATOM
   1 C1            -0.0178     1.4648     0.0101 C.3     
   2 N2             0.0021    -0.0041     0.0020 N.3     
   3 C3             0.7062    -0.5275     1.1802 C.3     
   4 C4             2.1851    -0.1430     1.1032 C.3     
   5 C5             2.9074    -0.6800     2.3119 C.ar    
   6 C6             3.4718    -1.9413     2.2760 C.ar    
   7 C7             4.1343    -2.4339     3.3847 C.ar    
   8 C8             4.2328    -1.6649     4.5292 C.ar    
   9 C9             3.6692    -0.4032     4.5648 C.ar    
  10 C10            3.0104     0.0911     3.4546 C.ar    
  11 N11            4.9414    -2.1927     5.7168 N.pl3   
  12 O12            5.4377    -3.3046     5.6855 O.2     
  13 O13            5.0282    -1.5152     6.7252 O.2     
  14 C14           -1.3597    -0.5486    -0.0825 C.3     
  15 C15           -1.9710    -0.1854    -1.4372 C.3     
  16 C16           -3.3893    -0.7525    -1.5252 C.3     
  17 O17           -3.9603    -0.4133    -2.7905 O.3     
  18 C18           -5.2263    -0.8445    -3.0316 C.ar    
  19 C19           -5.8421    -0.5509    -4.2396 C.ar    
  20 C20           -7.1289    -0.9908    -4.4824 C.ar    
  21 C21           -7.8031    -1.7231    -3.5227 C.ar    
  22 C22           -7.1916    -2.0170    -2.3180 C.ar    
  23 C23           -5.9030    -1.5839    -2.0724 C.ar    
  24 N24           -9.1819    -2.1928    -3.7853 N.pl3   
  25 O25           -9.7217    -1.9341    -4.8461 O.2     
  26 O26           -9.7767    -2.8379    -2.9407 O.2     
  27 H27            1.0047     1.8421     0.0024 H       
  28 H28           -0.5450     1.8259    -0.8730 H       
  29 H29           -0.5280     1.8163     0.9069 H       
  30 H30            0.2673    -0.1040     2.0837 H       
  31 H31            0.6139    -1.6133     1.2060 H       
  32 H32            2.6240    -0.5665     0.1998 H       
  33 H33            2.2773     0.9428     1.0774 H       
  34 H34            3.3949    -2.5421     1.3818 H       
  35 H35            4.5747    -3.4196     3.3569 H       
  36 H36            3.7458     0.1974     5.4591 H       
  37 H37            2.5700     1.0768     3.4824 H       
  38 H38           -1.3244    -1.6331     0.0212 H       
  39 H39           -1.9698    -0.1268     0.7163 H       
  40 H40           -2.0063     0.8991    -1.5409 H       
  41 H41           -1.3609    -0.6071    -2.2359 H       
  42 H42           -3.3540    -1.8370    -1.4215 H       
  43 H43           -3.9994    -0.3308    -0.7265 H       
  44 H44           -5.3160     0.0213    -4.9894 H       
  45 H45           -7.6089    -0.7622    -5.4225 H       
  46 H46           -7.7204    -2.5889    -1.5699 H       
  47 H47           -5.4257    -1.8138    -1.1312 H       
@<TRIPOS>BOND
   1    1    2 1
   2    1   27 1
   3    1   28 1
   4    1   29 1
   5    2    3 1
   6    2   14 1
   7    3    4 1
   8    3   30 1
   9    3   31 1
  10    4    5 1
  11    4   32 1
  12    4   33 1
  13    5    6 ar
  14    5   10 ar
  15    6    7 ar
  16    6   34 1
  17    7    8 ar
  18    7   35 1
  19    8    9 ar
  20    8   11 1
  21    9   10 ar
  22    9   36 1
  23   10   37 1
  24   11   12 2
  25   11   13 2
  26   14   15 1
  27   14   38 1
  28   14   39 1
  29   15   16 1
  30   15   40 1
  31   15   41 1
  32   16   17 1
  33   16   42 1
  34   16   43 1
  35   17   18 1
  36   18   19 ar
  37   18   23 ar
  38   19   20 ar
  39   19   44 1
  40   20   21 ar
  41   20   45 1
  42   21   22 ar
  43   21   24 1
  44   22   23 ar
  45   22   46 1
  46   23   47 1
  47   24   25 2
  48   24   26 2

#	End of record

