#	Name: ASD02500718
#	Creating user name:	WinNT
#	Creation time:	15. 06. 2019 20:23

#	Modifying user name:	WinNT
#	Modification time:	15. 06. 2019 20:23

#	Program:	/corina/corina34_cracker 3.40 0067  02.08.2006

@<TRIPOS>MOLECULE
ASD02500718
  64   68    0    0    0
SMALL
NO_CHARGES


@<TRIPOS>ATOM
   1 N1             1.8292     4.0980    -0.8520 N.ar    
   2 C2             2.7598     3.8573     0.0392 C.ar    
   3 C3             3.9376     3.1907    -0.2923 C.ar    
   4 C4             4.1446     2.7692    -1.5748 C.ar    
   5 C5             3.1428     3.0291    -2.5291 C.ar    
   6 C6             3.2850     2.6267    -3.8665 C.ar    
   7 C7             2.2933     2.8971    -4.7597 C.ar    
   8 C8             1.1386     3.5687    -4.3641 C.ar    
   9 C9             0.9678     3.9731    -3.0758 C.ar    
  10 C10            1.9691     3.7124    -2.1244 C.ar    
  11 S11           -0.5023     4.8213    -2.6026 S.o2    
  12 O12           -0.0860     5.9891    -1.9083 O.2     
  13 O13           -1.3335     4.8569    -3.7546 O.2     
  14 N14           -1.2814     3.8704    -1.4931 N.am    
  15 C15           -1.8262     2.6501    -1.8827 C.ar    
  16 C16           -2.9911     2.1828    -1.2758 C.ar    
  17 C17           -3.5320     0.9755    -1.6599 C.ar    
  18 C18           -2.9111     0.2199    -2.6595 C.ar    
  19 C19           -1.7439     0.6923    -3.2654 C.ar    
  20 C20           -1.2105     1.9021    -2.8808 C.ar    
  21 F21           -3.5896     2.9141    -0.3103 F       
  22 C22           -3.4869    -1.0738    -3.0732 C.2     
  23 O23           -3.5117    -1.3798    -4.2497 O.2     
  24 N24           -3.9856    -1.9164    -2.1470 N.am    
  25 C25           -4.4297    -3.1871    -2.5550 C.3     
  26 C26           -5.9226    -3.3841    -2.1881 C.3     
  27 N27           -6.0250    -3.5573    -0.7535 N.3     
  28 C28           -6.3023    -2.3241     0.0119 C.3     
  29 C29           -5.4863    -1.1189    -0.4525 C.3     
  30 C30           -4.0408    -1.4751    -0.7384 C.3     
  31 C31           -6.9896    -4.6132    -0.4182 C.3     
  32 C32           -6.4692    -5.9416    -0.9034 C.ar    
  33 C33           -5.6811    -6.7193    -0.0758 C.ar    
  34 C34           -5.2036    -7.9378    -0.5209 C.ar    
  35 C35           -5.5146    -8.3788    -1.7936 C.ar    
  36 C36           -6.3035    -7.6016    -2.6209 C.ar    
  37 C37           -6.7845    -6.3850    -2.1742 C.ar    
  38 H38            2.6099     4.1848     1.0574 H       
  39 H39            4.6863     3.0076     0.4643 H       
  40 H40            5.0517     2.2514    -1.8493 H       
  41 H41            4.1759     2.1060    -4.1853 H       
  42 H42            2.4036     2.5872    -5.7884 H       
  43 H43            0.3667     3.7720    -5.0915 H       
  44 H44           -1.3581     4.1637    -0.5717 H       
  45 H45           -4.4340     0.6129    -1.1894 H       
  46 H46           -1.2623     0.1105    -4.0373 H       
  47 H47           -0.3107     2.2689    -3.3521 H       
  48 H48           -4.3092    -3.2809    -3.6343 H       
  49 H49           -3.8333    -3.9530    -2.0591 H       
  50 H50           -6.4933    -2.5068    -2.4926 H       
  51 H51           -6.3099    -4.2695    -2.6923 H       
  52 H52           -7.3616    -2.0855    -0.0833 H       
  53 H53           -6.0828    -2.5096     1.0633 H       
  54 H54           -5.9375    -0.7154    -1.3590 H       
  55 H55           -5.5137    -0.3540     0.3235 H       
  56 H56           -3.7181    -2.2834    -0.0821 H       
  57 H57           -3.4038    -0.6021    -0.5965 H       
  58 H58           -7.1273    -4.6497     0.6625 H       
  59 H59           -7.9441    -4.3993    -0.8990 H       
  60 H60           -5.4381    -6.3747     0.9185 H       
  61 H61           -4.5873    -8.5450     0.1255 H       
  62 H62           -5.1410    -9.3305    -2.1416 H       
  63 H63           -6.5462    -7.9460    -3.6153 H       
  64 H64           -7.4039    -5.7795    -2.8192 H       
@<TRIPOS>BOND
   1    1    2 ar
   2    1   10 ar
   3    2    3 ar
   4    2   38 1
   5    3    4 ar
   6    3   39 1
   7    4    5 ar
   8    4   40 1
   9    5    6 ar
  10    5   10 ar
  11    6    7 ar
  12    6   41 1
  13    7    8 ar
  14    7   42 1
  15    8    9 ar
  16    8   43 1
  17    9   10 ar
  18    9   11 1
  19   11   12 2
  20   11   13 2
  21   11   14 am
  22   14   15 1
  23   14   44 1
  24   15   16 ar
  25   15   20 ar
  26   16   17 ar
  27   16   21 1
  28   17   18 ar
  29   17   45 1
  30   18   19 ar
  31   18   22 1
  32   19   20 ar
  33   19   46 1
  34   20   47 1
  35   22   23 2
  36   22   24 am
  37   24   25 1
  38   24   30 1
  39   25   26 1
  40   25   48 1
  41   25   49 1
  42   26   27 1
  43   26   50 1
  44   26   51 1
  45   27   28 1
  46   27   31 1
  47   28   29 1
  48   28   52 1
  49   28   53 1
  50   29   30 1
  51   29   54 1
  52   29   55 1
  53   30   56 1
  54   30   57 1
  55   31   32 1
  56   31   58 1
  57   31   59 1
  58   32   33 ar
  59   32   37 ar
  60   33   34 ar
  61   33   60 1
  62   34   35 ar
  63   34   61 1
  64   35   36 ar
  65   35   62 1
  66   36   37 ar
  67   36   63 1
  68   37   64 1

#	End of record

