#	Name: ASD01900698
#	Creating user name:	WinNT
#	Creation time:	15. 06. 2019 19:52

#	Modifying user name:	WinNT
#	Modification time:	15. 06. 2019 19:52

#	Program:	/corina/corina34_cracker 3.40 0067  02.08.2006

@<TRIPOS>MOLECULE
ASD01900698
  34   37    0    0    0
SMALL
NO_CHARGES


@<TRIPOS>ATOM
   1 C1            -0.0183     1.4026     0.1324 C.ar    
   2 C2            -0.0081     0.0177     0.1213 C.ar    
   3 C3             1.1828    -0.6778     0.0629 C.ar    
   4 C4             2.3875     0.0112     0.0137 C.ar    
   5 C5             2.3723     1.4127     0.0291 C.ar    
   6 O6             3.5588    -0.6565    -0.0554 O.3     
   7 C7             4.7338    -0.0516     0.1911 C.2     
   8 C8             4.8734     1.2939     0.2212 C.2     
   9 C9             3.6751     2.1245    -0.0107 C.2     
  10 C10            5.9232    -0.8916     0.4394 C.ar    
  11 C11            5.7943    -2.2911     0.4111 C.ar    
  12 C12            6.8845    -3.0768     0.6381 C.ar    
  13 C13            8.1191    -2.4482     0.8968 C.ar    
  14 C14            8.1843    -1.0317     0.9117 C.ar    
  15 N15            7.0856    -0.3111     0.6777 N.ar    
  16 C16            1.1700     2.1049     0.0864 C.ar    
  17 C17            9.2807    -3.1977     1.1393 C.ar    
  18 C18           10.4569    -2.5570     1.3861 C.ar    
  19 C19           10.5240    -1.1651     1.4014 C.ar    
  20 C20            9.4183    -0.4066     1.1701 C.ar    
  21 N21            3.7561     3.4120    -0.2391 N.2     
  22 O22            2.5976     4.1411    -0.6013 O.3     
  23 H23           -0.9575     1.9344     0.1725 H       
  24 H24           -0.9418    -0.5238     0.1592 H       
  25 H25            1.1777    -1.7578     0.0557 H       
  26 H26            5.8350     1.7479     0.4102 H       
  27 H27            4.8339    -2.7424     0.2103 H       
  28 H28            6.8042    -4.1536     0.6207 H       
  29 H29            1.1641     3.1848     0.0942 H       
  30 H30            9.2419    -4.2770     1.1306 H       
  31 H31           11.3496    -3.1354     1.5729 H       
  32 H32           11.4686    -0.6808     1.5999 H       
  33 H33            9.4873     0.6711     1.1855 H       
  34 H34            2.7562     5.0835    -0.7492 H       
@<TRIPOS>BOND
   1    1    2 ar
   2    1   16 ar
   3    1   23 1
   4    2    3 ar
   5    2   24 1
   6    3    4 ar
   7    3   25 1
   8    4    5 ar
   9    4    6 1
  10    5   16 ar
  11    5    9 1
  12    6    7 1
  13    7    8 2
  14    7   10 1
  15    8    9 1
  16    8   26 1
  17    9   21 2
  18   10   11 ar
  19   10   15 ar
  20   11   12 ar
  21   11   27 1
  22   12   13 ar
  23   12   28 1
  24   13   14 ar
  25   13   17 ar
  26   14   15 ar
  27   14   20 ar
  28   16   29 1
  29   17   18 ar
  30   17   30 1
  31   18   19 ar
  32   18   31 1
  33   19   20 ar
  34   19   32 1
  35   20   33 1
  36   21   22 1
  37   22   34 1

#	End of record

