#	Name: ASD06170274
#	Creating user name:	WinNT
#	Creation time:	15. 06. 2019 21:05

#	Modifying user name:	WinNT
#	Modification time:	15. 06. 2019 21:05

#	Program:	/corina/corina34_cracker 3.40 0067  02.08.2006

@<TRIPOS>MOLECULE
ASD06170274
  66   70    0    0    0
SMALL
NO_CHARGES


@<TRIPOS>ATOM
   1 N1             0.1054     2.3805    -0.3900 N.am    
   2 N2             0.3480     3.7017    -0.7774 N.pl3   
   3 C3             1.6619     3.9768    -0.6720 C.2     
   4 C4             2.3113     2.8467    -0.2146 C.2     
   5 C5             1.2779     1.8144    -0.0362 C.2     
   6 C6             3.7492     2.7036     0.0425 C.2     
   7 O7             4.4979     3.6435    -0.1487 O.2     
   8 N8             4.2402     1.5311     0.4903 N.am    
   9 C9            -0.6755     4.6466    -1.2310 C.3     
  10 C10            2.3142     5.2955    -0.9987 C.3     
  11 C11            5.6179     1.3573     0.6238 C.ar    
  12 C12            6.1230     0.1089     0.9679 C.ar    
  13 C13            7.4910    -0.0525     1.0972 C.ar    
  14 C14            8.3128     1.0495     0.8761 C.ar    
  15 C15            7.7382     2.2641     0.5359 C.ar    
  16 N16            6.4298     2.3816     0.4162 N.ar    
  17 O17            9.6626     0.9357     0.9928 O.3     
  18 N18           11.3974     2.2323     4.5029 N.ar    
  19 C19           12.1854     1.6706     3.5784 C.ar    
  20 C20           11.6287     1.2119     2.3597 C.ar    
  21 C21           10.2399     1.3591     2.1443 C.ar    
  22 C22            9.4872     1.9490     3.1444 C.ar    
  23 C23           10.1065     2.3734     4.3133 C.ar    
  24 O24            1.4475     0.6742     0.3539 O.2     
  25 C25           -1.1442     1.7526    -0.3674 C.ar    
  26 C26           -2.2281     2.3812     0.2317 C.ar    
  27 C27           12.4572     0.6244     1.3919 C.ar    
  28 C28           13.7949     0.4997     1.6335 C.ar    
  29 C29           14.3490     0.9529     2.8392 C.ar    
  30 C30           13.5655     1.5279     3.7978 C.ar    
  31 C31           16.1899     1.2977     4.3035 C.3     
  32 O32           15.6835     0.8172     3.0565 O.3     
  33 C33           -3.4607     1.7584     0.2524 C.ar    
  34 C34           -3.6162     0.5104    -0.3224 C.ar    
  35 C35           -2.5388    -0.1184    -0.9193 C.ar    
  36 C36           -1.3051     0.5016    -0.9488 C.ar    
  37 O37           14.5980    -0.0701     0.6958 O.3     
  38 C38           13.9735    -0.5120    -0.5112 C.3     
  39 C39           -4.9626    -0.1662    -0.2980 C.3     
  40 H40            3.6357     0.8080     0.7197 H       
  41 H41           -1.1330     5.1291    -0.3673 H       
  42 H42           -0.2157     5.4021    -1.8681 H       
  43 H43           -1.4394     4.1116    -1.7953 H       
  44 H44            2.3288     5.9241    -0.1083 H       
  45 H45            3.3356     5.1216    -1.3373 H       
  46 H46            1.7502     5.7945    -1.7866 H       
  47 H47            5.4561    -0.7244     1.1325 H       
  48 H48            7.9116    -1.0109     1.3638 H       
  49 H49            8.3693     3.1233     0.3629 H       
  50 H50            8.4227     2.0790     3.0168 H       
  51 H51            9.5092     2.8325     5.0871 H       
  52 H52           -2.1072     3.3557     0.6811 H       
  53 H53           12.0388     0.2723     0.4607 H       
  54 H54           14.0054     1.8722     4.7221 H       
  55 H55           17.2657     1.1286     4.3481 H       
  56 H56           15.9858     2.3648     4.3915 H       
  57 H57           15.7043     0.7661     5.1219 H       
  58 H58           -4.3039     2.2465     0.7184 H       
  59 H59           -2.6635    -1.0933    -1.3671 H       
  60 H60           -0.4641     0.0100    -1.4152 H       
  61 H61           13.2192    -1.2630    -0.2761 H       
  62 H62           13.5002     0.3356    -1.0069 H       
  63 H63           14.7247    -0.9458    -1.1712 H       
  64 H64           -5.5258     0.1132    -1.1883 H       
  65 H65           -4.8256    -1.2474    -0.2792 H       
  66 H66           -5.5101     0.1462     0.5912 H       
@<TRIPOS>BOND
   1    1    2 1
   2    1    5 am
   3    1   25 1
   4    2    3 1
   5    2    9 1
   6    3    4 2
   7    3   10 1
   8    4    5 1
   9    4    6 1
  10    5   24 2
  11    6    7 2
  12    6    8 am
  13    8   11 1
  14    8   40 1
  15    9   41 1
  16    9   42 1
  17    9   43 1
  18   10   44 1
  19   10   45 1
  20   10   46 1
  21   11   12 ar
  22   11   16 ar
  23   12   13 ar
  24   12   47 1
  25   13   14 ar
  26   13   48 1
  27   14   15 ar
  28   14   17 1
  29   15   16 ar
  30   15   49 1
  31   17   21 1
  32   18   19 ar
  33   18   23 ar
  34   19   20 ar
  35   19   30 ar
  36   20   21 ar
  37   20   27 ar
  38   21   22 ar
  39   22   23 ar
  40   22   50 1
  41   23   51 1
  42   25   26 ar
  43   25   36 ar
  44   26   33 ar
  45   26   52 1
  46   27   28 ar
  47   27   53 1
  48   28   29 ar
  49   28   37 1
  50   29   30 ar
  51   29   32 1
  52   30   54 1
  53   31   32 1
  54   31   55 1
  55   31   56 1
  56   31   57 1
  57   33   34 ar
  58   33   58 1
  59   34   35 ar
  60   34   39 1
  61   35   36 ar
  62   35   59 1
  63   36   60 1
  64   37   38 1
  65   38   61 1
  66   38   62 1
  67   38   63 1
  68   39   64 1
  69   39   65 1
  70   39   66 1

#	End of record

