#	Name: ASD01152195
#	Creating user name:	WinNT
#	Creation time:	15. 06. 2019 19:05

#	Modifying user name:	WinNT
#	Modification time:	15. 06. 2019 19:05

#	Program:	/corina/corina34_cracker 3.40 0067  02.08.2006

@<TRIPOS>MOLECULE
ASD01152195
  21   21    0    0    0
SMALL
NO_CHARGES


@<TRIPOS>ATOM
   1 C1            -0.0206     1.3694     0.0309 C.ar    
   2 C2             0.0143     0.0050     0.2435 C.ar    
   3 C3             1.2198    -0.6701     0.2217 C.ar    
   4 C4             2.4010     0.0219    -0.0138 C.ar    
   5 C5             2.3697     1.3925    -0.2278 C.ar    
   6 C6             1.1576     2.0676    -0.2057 C.ar    
   7 N7             1.1216     3.4472    -0.4211 N.pl3   
   8 N8             3.6213    -0.6625    -0.0348 N.am    
   9 C9             3.6843    -1.9125    -0.5350 C.2     
  10 O10            2.6703    -2.4760    -0.8888 O.2     
  11 C11            5.0149    -2.6099    -0.6547 C.3     
  12 H12           -0.9649     1.8935     0.0441 H       
  13 H13           -0.9026    -0.5352     0.4276 H       
  14 H14            1.2436    -1.7369     0.3883 H       
  15 H15            3.2868     1.9327    -0.4108 H       
  16 H16            1.9443     3.9339    -0.5863 H       
  17 H17            0.2740     3.9185    -0.4055 H       
  18 H18            4.4218    -0.2374     0.3106 H       
  19 H19            5.4690    -2.6980     0.3323 H       
  20 H20            4.8674    -3.6040    -1.0768 H       
  21 H21            5.6706    -2.0322    -1.3061 H       
@<TRIPOS>BOND
   1    1    2 ar
   2    1    6 ar
   3    1   12 1
   4    2    3 ar
   5    2   13 1
   6    3    4 ar
   7    3   14 1
   8    4    5 ar
   9    4    8 1
  10    5    6 ar
  11    5   15 1
  12    6    7 1
  13    7   16 1
  14    7   17 1
  15    8    9 am
  16    8   18 1
  17    9   10 2
  18    9   11 1
  19   11   19 1
  20   11   20 1
  21   11   21 1

#	End of record

