#	Name: ASD01140292
#	Creating user name:	WinNT
#	Creation time:	15. 06. 2019 19:00

#	Modifying user name:	WinNT
#	Modification time:	15. 06. 2019 19:00

#	Program:	/corina/corina34_cracker 3.40 0067  02.08.2006

@<TRIPOS>MOLECULE
ASD01140292
  48   52    0    0    0
SMALL
NO_CHARGES


@<TRIPOS>ATOM
   1 C1             0.8370     1.1581    -0.4273 C.2     
   2 C2             4.8981    -0.3186     4.5814 C.ar    
   3 C3             3.8390    -1.0897     5.0687 C.ar    
   4 C4             2.6514    -1.1798     4.3427 C.ar    
   5 C5             2.5351    -0.4992     3.1414 C.ar    
   6 C6             3.5901     0.3071     2.6735 C.ar    
   7 C7             4.7736     0.3720     3.3948 C.ar    
   8 C8             1.3117    -0.6287     2.2984 C.2     
   9 N9             0.6953     0.4475     1.9547 N.2     
  10 C10            1.1886     1.7951     2.2189 C.3     
  11 C11            2.3708     2.0944     1.3060 C.3     
  12 N12            3.3957     1.0440     1.5243 N.pl3   
  13 C13            3.9665     0.8174     0.2991 C.2     
  14 C14            2.0800     1.9757    -0.1871 C.3     
  15 N15            3.2763     1.2711    -0.6881 N.2     
  16 C16            0.8201    -1.9585     1.8684 C.ar    
  17 C17           -0.5152    -2.1266     1.5025 C.ar    
  18 C18            1.6922    -3.0459     1.8223 C.ar    
  19 C19            1.2285    -4.2820     1.4210 C.ar    
  20 C20           -0.0985    -4.4438     1.0648 C.ar    
  21 C21           -0.9671    -3.3676     1.1029 C.ar    
  22 C22            3.9733    -1.7871     6.3122 C.1     
  23 C23            4.0834    -2.3589     7.3316 C.1     
  24 O24            0.7662    -0.1729    -0.5236 O.3     
  25 N25           -0.3826    -0.5105    -0.7181 N.2     
  26 C26           -1.1558     0.5327    -0.7672 C.2     
  27 N27           -0.3825     1.6165    -0.5761 N.2     
  28 C28           -2.6460     0.5287    -0.9914 C.3     
  29 C29           -3.3643     0.4363     0.3563 C.3     
  30 H30            5.8198    -0.2598     5.1412 H       
  31 H31            1.8300    -1.7750     4.7133 H       
  32 H32            5.5981     0.9642     3.0262 H       
  33 H33            0.3930     2.5161     2.0309 H       
  34 H34            1.5057     1.8681     3.2592 H       
  35 H35            2.7848     3.0748     1.5418 H       
  36 H36            4.9091     0.3054     0.1734 H       
  37 H37            1.9892     2.9599    -0.6467 H       
  38 H38           -1.1942    -1.2873     1.5323 H       
  39 H39            2.7284    -2.9207     2.0998 H       
  40 H40            1.9028    -5.1248     1.3845 H       
  41 H41           -0.4569    -5.4132     0.7513 H       
  42 H42           -2.0019    -3.5001     0.8237 H       
  43 H43            4.1819    -2.8703     8.2434 H       
  44 H44           -2.9398     1.4483    -1.4974 H       
  45 H45           -2.9184    -0.3281    -1.6077 H       
  46 H46           -3.0705    -0.4833     0.8624 H       
  47 H47           -3.0920     1.2931     0.9727 H       
  48 H48           -4.4422     0.4334     0.1941 H       
@<TRIPOS>BOND
   1    1   24 1
   2    1   14 1
   3    1   27 2
   4    2    3 ar
   5    2    7 ar
   6    2   30 1
   7    3    4 ar
   8    3   22 1
   9    4    5 ar
  10    4   31 1
  11    5    6 ar
  12    5    8 1
  13    6    7 ar
  14    6   12 1
  15    7   32 1
  16    8    9 2
  17    8   16 1
  18    9   10 1
  19   10   11 1
  20   10   33 1
  21   10   34 1
  22   11   12 1
  23   11   14 1
  24   11   35 1
  25   12   13 1
  26   13   15 2
  27   13   36 1
  28   14   15 1
  29   14   37 1
  30   16   17 ar
  31   16   18 ar
  32   17   21 ar
  33   17   38 1
  34   18   19 ar
  35   18   39 1
  36   19   20 ar
  37   19   40 1
  38   20   21 ar
  39   20   41 1
  40   21   42 1
  41   22   23 3
  42   23   43 1
  43   24   25 1
  44   25   26 2
  45   26   27 1
  46   26   28 1
  47   28   29 1
  48   28   44 1
  49   28   45 1
  50   29   46 1
  51   29   47 1
  52   29   48 1

#	End of record

