#	Name: ASD03090041
#	Creating user name:	WinNT
#	Creation time:	15. 06. 2019 20:28

#	Modifying user name:	WinNT
#	Modification time:	15. 06. 2019 20:28

#	Program:	/corina/corina34_cracker 3.40 0067  02.08.2006

@<TRIPOS>MOLECULE
ASD03090041
  45   47    0    0    0
SMALL
NO_CHARGES


@<TRIPOS>ATOM
   1 N1            -0.0693     1.2953    -0.1187 N.am    
   2 C2            -0.0540     0.0628     0.4266 C.2     
   3 O3             0.9910    -0.4111     0.8289 O.2     
   4 N4            -1.1971    -0.6443     0.5259 N.am    
   5 O5            -1.8728    -3.7598     1.7715 O.3     
   6 N6            -2.2029    -2.7190     1.2521 N.2     
   7 C7            -1.1813    -1.9197     1.0902 C.2     
   8 C8            -0.0519    -2.6108     1.6042 C.2     
   9 C9            -0.5573    -3.7908     2.0296 C.2     
  10 C10            0.2083    -4.9200     2.6697 C.3     
  11 C11            1.1049     2.0635    -0.1499 C.ar    
  12 C12            1.0277     3.4556    -0.1899 C.ar    
  13 C13            2.1902     4.2108    -0.2207 C.ar    
  14 C14            3.4255     3.5806    -0.2116 C.ar    
  15 C15            3.4994     2.1962    -0.1717 C.ar    
  16 C16            2.3426     1.4399    -0.1352 C.ar    
  17 N17           -0.2204     4.0888    -0.1995 N.pl3   
  18 C18           -0.3875     5.3060     0.4517 C.ar    
  19 C19           -1.6510     5.8850     0.5177 C.ar    
  20 C20           -1.8028     7.0958     1.1684 C.ar    
  21 C21           -0.6818     7.6896     1.7337 C.ar    
  22 C22            0.5419     7.0592     1.6306 C.ar    
  23 N23            0.6563     5.9012     1.0083 N.ar    
  24 O24            4.5656     4.3208    -0.2422 O.3     
  25 C25            5.8033     3.6067    -0.2306 C.3     
  26 C26            6.9660     4.6005    -0.2689 C.3     
  27 H27           -0.8909     1.6498    -0.4931 H       
  28 H28           -2.0307    -0.2663     0.2050 H       
  29 H29            0.9730    -2.2725     1.6453 H       
  30 H30           -0.4752    -5.7366     2.9022 H       
  31 H31            0.9765    -5.2738     1.9821 H       
  32 H32            0.6775    -4.5664     3.5878 H       
  33 H33            2.1336     5.2888    -0.2521 H       
  34 H34            4.4628     1.7080    -0.1651 H       
  35 H35            2.4034     0.3622    -0.0997 H       
  36 H36           -0.9688     3.6786    -0.6604 H       
  37 H37           -2.5016     5.3957     0.0665 H       
  38 H38           -2.7713     7.5692     1.2352 H       
  39 H39           -0.7665     8.6353     2.2485 H       
  40 H40            1.4162     7.5176     2.0685 H       
  41 H41            5.8681     3.0066     0.6770 H       
  42 H42            5.8544     2.9540    -1.1021 H       
  43 H43            6.9149     5.2531     0.6026 H       
  44 H44            7.9100     4.0558    -0.2601 H       
  45 H45            6.9012     5.2006    -1.1765 H       
@<TRIPOS>BOND
   1    1    2 am
   2    1   11 1
   3    1   27 1
   4    2    3 2
   5    2    4 am
   6    4    7 1
   7    4   28 1
   8    5    6 1
   9    5    9 1
  10    6    7 2
  11    7    8 1
  12    8    9 2
  13    8   29 1
  14    9   10 1
  15   10   30 1
  16   10   31 1
  17   10   32 1
  18   11   12 ar
  19   11   16 ar
  20   12   13 ar
  21   12   17 1
  22   13   14 ar
  23   13   33 1
  24   14   15 ar
  25   14   24 1
  26   15   16 ar
  27   15   34 1
  28   16   35 1
  29   17   18 1
  30   17   36 1
  31   18   19 ar
  32   18   23 ar
  33   19   20 ar
  34   19   37 1
  35   20   21 ar
  36   20   38 1
  37   21   22 ar
  38   21   39 1
  39   22   23 ar
  40   22   40 1
  41   24   25 1
  42   25   26 1
  43   25   41 1
  44   25   42 1
  45   26   43 1
  46   26   44 1
  47   26   45 1

#	End of record

