#	Name: ASD04880366
#	Creating user name:	WinNT
#	Creation time:	15. 06. 2019 20:53

#	Modifying user name:	WinNT
#	Modification time:	15. 06. 2019 20:53

#	Program:	/corina/corina34_cracker 3.40 0067  02.08.2006

@<TRIPOS>MOLECULE
ASD04880366
  48   52    0    0    0
SMALL
NO_CHARGES


@<TRIPOS>ATOM
   1 C1            -0.0278     1.3778    -0.2858 C.ar    
   2 C2            -0.0053    -0.0200    -0.2673 C.ar    
   3 C3             1.2153    -0.6939    -0.2261 C.ar    
   4 C4             2.4045     0.0331    -0.2037 C.ar    
   5 C5             2.3660     1.4306    -0.2227 C.ar    
   6 C6             1.1543     2.0908    -0.2634 C.ar    
   7 C7             3.7002    -0.6703    -0.1596 C.2     
   8 N8             3.8513    -1.9494    -0.1392 N.2     
   9 N9             5.1806    -2.3651    -0.0987 N.am    
  10 C10            6.0503    -1.1781    -0.0909 C.3     
  11 C11            5.0559    -0.0010    -0.1381 C.3     
  12 C12            5.6011    -3.6453    -0.0711 C.2     
  13 O13            6.7890    -3.8967    -0.1407 O.2     
  14 C14            4.6204    -4.7417     0.0435 C.ar    
  15 C15            5.0381    -6.0701    -0.0723 C.ar    
  16 C16            3.2723    -4.4545     0.2739 C.ar    
  17 C17            2.3575    -5.4838     0.3811 C.ar    
  18 C18            2.7804    -6.8081     0.2594 C.ar    
  19 C19            4.1210    -7.0924     0.0356 C.ar    
  20 C20           -1.2323    -0.7581    -0.2901 C.1     
  21 C21           -2.2382    -1.3631    -0.3088 C.1     
  22 C22           -3.4651    -2.1011    -0.3315 C.ar    
  23 C23           -3.4445    -3.4982    -0.3131 C.ar    
  24 C24           -4.6302    -4.2023    -0.3347 C.ar    
  25 C25           -5.8383    -3.5286    -0.3746 C.ar    
  26 C26           -5.8665    -2.1452    -0.3936 C.ar    
  27 C27           -4.6890    -1.4277    -0.3665 C.ar    
  28 O28            1.0097    -5.4755     0.5996 O.3     
  29 C29            0.5489    -6.7808     0.2035 C.3     
  30 O30            1.6979    -7.6250     0.4025 O.3     
  31 H31           -0.9719     1.9010    -0.3223 H       
  32 H32            1.2390    -1.7735    -0.2112 H       
  33 H33            3.2866     1.9951    -0.2050 H       
  34 H34            1.1309     3.1705    -0.2779 H       
  35 H35            6.6460    -1.1449     0.8212 H       
  36 H36            6.6934    -1.1680    -0.9709 H       
  37 H37            5.2089     0.5930    -1.0391 H       
  38 H38            5.1561     0.6200     0.7521 H       
  39 H39            6.0798    -6.2953    -0.2468 H       
  40 H40            2.9463    -3.4292     0.3684 H       
  41 H41            4.4452    -8.1183    -0.0586 H       
  42 H42           -2.5024    -4.0253    -0.2823 H       
  43 H43           -4.6159    -5.2821    -0.3208 H       
  44 H44           -6.7637    -4.0852    -0.3915 H       
  45 H45           -6.8130    -1.6261    -0.4251 H       
  46 H46           -4.7125    -0.3480    -0.3810 H       
  47 H47           -0.2776    -7.1035     0.8367 H       
  48 H48            0.2514    -6.7799    -0.8451 H       
@<TRIPOS>BOND
   1    1    2 ar
   2    1    6 ar
   3    1   31 1
   4    2    3 ar
   5    2   20 1
   6    3    4 ar
   7    3   32 1
   8    4    5 ar
   9    4    7 1
  10    5    6 ar
  11    5   33 1
  12    6   34 1
  13    7    8 2
  14    7   11 1
  15    8    9 1
  16    9   10 1
  17    9   12 am
  18   10   11 1
  19   10   35 1
  20   10   36 1
  21   11   37 1
  22   11   38 1
  23   12   13 2
  24   12   14 1
  25   14   15 ar
  26   14   16 ar
  27   15   19 ar
  28   15   39 1
  29   16   17 ar
  30   16   40 1
  31   17   18 ar
  32   17   28 1
  33   18   19 ar
  34   18   30 1
  35   19   41 1
  36   20   21 3
  37   21   22 1
  38   22   23 ar
  39   22   27 ar
  40   23   24 ar
  41   23   42 1
  42   24   25 ar
  43   24   43 1
  44   25   26 ar
  45   25   44 1
  46   26   27 ar
  47   26   45 1
  48   27   46 1
  49   28   29 1
  50   29   30 1
  51   29   47 1
  52   29   48 1

#	End of record

