#	Name: ASD00844708
#	Creating user name:	WinNT
#	Creation time:	15. 06. 2019 18:50

#	Modifying user name:	WinNT
#	Modification time:	15. 06. 2019 18:50

#	Program:	/corina/corina34_cracker 3.40 0067  02.08.2006

@<TRIPOS>MOLECULE
ASD00844708
  99  104    0    0    0
SMALL
NO_CHARGES


@<TRIPOS>ATOM
   1 C1             0.7171     1.2154    -0.4478 C.ar    
   2 C2             0.9694    -0.1267    -0.6913 C.ar    
   3 C3             0.8625    -1.0486     0.3401 C.ar    
   4 C4             0.5053    -0.6282     1.6064 C.ar    
   5 C5             0.2539     0.7103     1.8465 C.ar    
   6 C6             0.3601     1.6309     0.8207 C.ar    
   7 C7             1.1354    -2.5075     0.0789 C.3     
   8 C8             0.8227    -3.3342     1.3080 C.2     
   9 C9             0.3201    -2.9981    -1.1192 C.3     
  10 C10           -1.1396    -2.7035    -0.8879 C.2     
  11 N11           -2.0628    -3.1396    -1.7677 N.am    
  12 O12           -1.4837    -2.0739     0.0899 O.2     
  13 C13           -3.4752    -2.7634    -1.6190 C.3     
  14 C14           -4.3268    -4.0368    -1.6140 C.3     
  15 C15           -4.0230    -4.8537    -2.8720 C.3     
  16 C16           -2.5474    -5.2594    -2.8749 C.3     
  17 C17           -1.6748    -3.9953    -2.8973 C.3     
  18 N18           -4.8621    -6.0594    -2.8870 N.3     
  19 C19           -4.6843    -6.8092    -4.1383 C.3     
  20 C20           -5.5123    -8.0952    -4.0814 C.3     
  21 N21           -6.9264    -7.7553    -3.8709 N.3     
  22 C22           -7.1043    -7.0054    -2.6196 C.3     
  23 C23           -6.2763    -5.7195    -2.6765 C.3     
  24 C24           -7.7655    -8.9609    -3.8859 C.3     
  25 O25           -0.2582    -3.4418     1.8475 O.2     
  26 N26            1.9665    -3.9269     1.6886 N.am    
  27 C27            2.6119    -2.7376    -0.1511 C.ar    
  28 C28            3.0344    -3.6003     0.8574 C.ar    
  29 C29            3.4894    -2.2731    -1.0978 C.ar    
  30 C30            4.8314    -2.6677    -1.0561 C.ar    
  31 C31            5.2633    -3.5347    -0.0451 C.ar    
  32 C32            4.3715    -3.9956     0.8995 C.ar    
  33 F33            6.5568    -3.9216     0.0039 F       
  34 C34            1.7737    -6.5698     2.4319 C.ar    
  35 C35            0.5184    -6.9024     1.9432 C.ar    
  36 C36            2.7760    -7.5205     2.4693 C.ar    
  37 C37            2.5312    -8.8037     2.0200 C.ar    
  38 C38            1.2772    -9.1414     1.5302 C.ar    
  39 C39            0.2701    -8.1897     1.4921 C.ar    
  40 O40            1.0368   -10.4040     1.0888 O.3     
  41 O41           -0.4670    -5.9672     1.9071 O.3     
  42 C42           -1.7343    -6.3797     1.3914 C.3     
  43 C43            2.1207   -11.3327     1.1580 C.3     
  44 C44           -9.2074    -8.5831    -3.5409 C.3     
  45 C45           -7.7234    -9.5943    -5.2780 C.3     
  46 C46            5.7554    -2.1889    -2.0398 C.1     
  47 N47            6.4884    -1.8091    -2.8201 N.1     
  48 S48            2.0921    -4.9321     2.9986 S.o2    
  49 O49            3.4558    -4.9034     3.3971 O.2     
  50 O50            1.0210    -4.5931     3.8686 O.2     
  51 O51            1.3203    -0.5380    -1.9382 O.3     
  52 C52            1.3473     0.4552    -2.9652 C.3     
  53 C53            1.8398    -0.1738    -4.2701 C.3     
  54 F54            3.0901    -0.7653    -4.0598 F       
  55 F55            0.9281    -1.1477    -4.6916 F       
  56 H56            0.8040     1.9355    -1.2479 H       
  57 H57            0.4220    -1.3453     2.4096 H       
  58 H58           -0.0260     1.0370     2.8372 H       
  59 H59            0.1633     2.6756     1.0107 H       
  60 H60            0.6556    -2.4862    -2.0211 H       
  61 H61            0.4595    -4.0726    -1.2380 H       
  62 H62           -3.6137    -2.2275    -0.6800 H       
  63 H63           -3.7737    -2.1274    -2.4524 H       
  64 H64           -4.0906    -4.6289    -0.7299 H       
  65 H65           -5.3830    -3.7680    -1.6010 H       
  66 H66           -4.2360    -4.2523    -3.7557 H       
  67 H67           -2.3280    -5.8401    -1.9789 H       
  68 H68           -2.3372    -5.8609    -3.7593 H       
  69 H69           -1.8277    -3.4623    -3.8358 H       
  70 H70           -0.6255    -4.2738    -2.7997 H       
  71 H71           -5.0171    -6.1993    -4.9782 H       
  72 H72           -3.6312    -7.0601    -4.2654 H       
  73 H73           -5.4047    -8.6388    -5.0200 H       
  74 H74           -5.1614    -8.7174    -3.2581 H       
  75 H75           -8.1574    -6.7546    -2.4925 H       
  76 H76           -6.7715    -7.6153    -1.7797 H       
  77 H77           -6.3838    -5.1759    -1.7379 H       
  78 H78           -6.6272    -5.0972    -3.4998 H       
  79 H79           -7.3909    -9.6735    -3.1511 H       
  80 H80            3.1454    -1.6049    -1.8734 H       
  81 H81            4.7100    -4.6643     1.6771 H       
  82 H82            3.7524    -7.2597     2.8501 H       
  83 H83            3.3163    -9.5447     2.0496 H       
  84 H84           -0.7065    -8.4506     1.1117 H       
  85 H85           -2.4284    -5.5397     1.4186 H       
  86 H86           -1.6148    -6.7191     0.3625 H       
  87 H87           -2.1262    -7.1948     1.9997 H       
  88 H88            1.7951   -12.3001     0.7756 H       
  89 H89            2.9526   -10.9657     0.5569 H       
  90 H90            2.4410   -11.4408     2.1942 H       
  91 H91           -9.5821    -7.8705    -4.2757 H       
  92 H92           -9.8300    -9.4777    -3.5520 H       
  93 H93           -9.2374    -8.1319    -2.5491 H       
  94 H94           -8.0981    -8.8817    -6.0129 H       
  95 H95           -6.6962    -9.8634    -5.5239 H       
  96 H96           -8.3460   -10.4889    -5.2892 H       
  97 H97            0.3437     0.8549    -3.1107 H       
  98 H98            2.0207     1.2612    -2.6736 H       
  99 H99            1.9270     0.5977    -5.0352 H       
@<TRIPOS>BOND
   1    1    2 ar
   2    1    6 ar
   3    1   56 1
   4    2    3 ar
   5    2   51 1
   6    3    4 ar
   7    3    7 1
   8    4    5 ar
   9    4   57 1
  10    5    6 ar
  11    5   58 1
  12    6   59 1
  13    7    8 1
  14    7    9 1
  15    7   27 1
  16    8   25 2
  17    8   26 am
  18    9   10 1
  19    9   60 1
  20    9   61 1
  21   10   11 am
  22   10   12 2
  23   11   13 1
  24   11   17 1
  25   13   14 1
  26   13   62 1
  27   13   63 1
  28   14   15 1
  29   14   64 1
  30   14   65 1
  31   15   16 1
  32   15   18 1
  33   15   66 1
  34   16   17 1
  35   16   67 1
  36   16   68 1
  37   17   69 1
  38   17   70 1
  39   18   19 1
  40   18   23 1
  41   19   20 1
  42   19   71 1
  43   19   72 1
  44   20   21 1
  45   20   73 1
  46   20   74 1
  47   21   22 1
  48   21   24 1
  49   22   23 1
  50   22   75 1
  51   22   76 1
  52   23   77 1
  53   23   78 1
  54   24   44 1
  55   24   45 1
  56   24   79 1
  57   26   48 am
  58   26   28 1
  59   27   28 ar
  60   27   29 ar
  61   28   32 ar
  62   29   30 ar
  63   29   80 1
  64   30   31 ar
  65   30   46 1
  66   31   32 ar
  67   31   33 1
  68   32   81 1
  69   34   35 ar
  70   34   36 ar
  71   34   48 1
  72   35   41 1
  73   35   39 ar
  74   36   37 ar
  75   36   82 1
  76   37   38 ar
  77   37   83 1
  78   38   39 ar
  79   38   40 1
  80   39   84 1
  81   40   43 1
  82   41   42 1
  83   42   85 1
  84   42   86 1
  85   42   87 1
  86   43   88 1
  87   43   89 1
  88   43   90 1
  89   44   91 1
  90   44   92 1
  91   44   93 1
  92   45   94 1
  93   45   95 1
  94   45   96 1
  95   46   47 3
  96   48   49 2
  97   48   50 2
  98   51   52 1
  99   52   53 1
 100   52   97 1
 101   52   98 1
 102   53   54 1
 103   53   55 1
 104   53   99 1

#	End of record

