#	Name: ASD01911133
#	Creating user name:	WinNT
#	Creation time:	15. 06. 2019 19:57

#	Modifying user name:	WinNT
#	Modification time:	15. 06. 2019 19:57

#	Program:	/corina/corina34_cracker 3.40 0067  02.08.2006

@<TRIPOS>MOLECULE
ASD01911133
  45   48    0    0    0
SMALL
NO_CHARGES


@<TRIPOS>ATOM
   1 C1             0.1180     1.0166     0.1949 C.2     
   2 O2             1.1329     1.6836     0.2450 O.2     
   3 C3             0.2052    -0.4545     0.0751 C.ar    
   4 C4             1.2114    -1.0360    -0.6978 C.ar    
   5 C5             1.2870    -2.4115    -0.8055 C.ar    
   6 C6             0.3659    -3.2116    -0.1481 C.ar    
   7 C7            -0.6330    -2.6394     0.6185 C.ar    
   8 C8            -0.7147    -1.2672     0.7390 C.ar    
   9 F9             2.2599    -2.9771    -1.5529 F       
  10 N10           -1.0869     1.6176     0.2542 N.am    
  11 C11           -2.3199     0.8442     0.0533 C.3     
  12 C12           -3.1491     1.5152    -1.0463 C.3     
  13 C13           -3.3804     2.9833    -0.6812 C.3     
  14 C14           -2.0342     3.7046    -0.5832 C.3     
  15 C15           -1.1926     3.0574     0.5271 C.3     
  16 O16           -5.4025     0.6845    -0.2191 O.3     
  17 N17           -6.3542     0.0657    -0.6464 N.2     
  18 C18           -6.1529    -0.2647    -1.8924 C.2     
  19 N19           -4.9415     0.2143    -2.2431 N.2     
  20 C20           -4.4766     0.8135    -1.1742 C.2     
  21 O21           -7.0032    -0.9607    -2.6872 O.3     
  22 C22           -8.1390    -1.4550    -2.1279 C.ar    
  23 C23           -8.4738    -1.1199    -0.8240 C.ar    
  24 C24           -9.6305    -1.6245    -0.2573 C.ar    
  25 C25          -10.4528    -2.4633    -0.9915 C.ar    
  26 C26          -10.1195    -2.7973    -2.2905 C.ar    
  27 C27           -8.9680    -2.2908    -2.8621 C.ar    
  28 F28           -9.9578    -1.2996     1.0126 F       
  29 H29            1.9288    -0.4126    -1.2107 H       
  30 H30            0.4282    -4.2863    -0.2350 H       
  31 H31           -1.3479    -3.2684     1.1280 H       
  32 H32           -1.4926    -0.8227     1.3420 H       
  33 H33           -2.0684    -0.1727    -0.2478 H       
  34 H34           -2.8925     0.8220     0.9805 H       
  35 H35           -2.6130     1.4560    -1.9935 H       
  36 H36           -3.9910     3.4568    -1.4500 H       
  37 H37           -3.8946     3.0422     0.2781 H       
  38 H38           -1.5086     3.6248    -1.5348 H       
  39 H39           -2.2009     4.7554    -0.3462 H       
  40 H40           -1.6752     3.2119     1.4922 H       
  41 H41           -0.1971     3.5012     0.5388 H       
  42 H42           -7.8321    -0.4662    -0.2520 H       
  43 H43          -11.3554    -2.8571    -0.5481 H       
  44 H44          -10.7621    -3.4514    -2.8610 H       
  45 H45           -8.7112    -2.5487    -3.8789 H       
@<TRIPOS>BOND
   1    1    2 2
   2    1    3 1
   3    1   10 am
   4    3    4 ar
   5    3    8 ar
   6    4    5 ar
   7    4   29 1
   8    5    6 ar
   9    5    9 1
  10    6    7 ar
  11    6   30 1
  12    7    8 ar
  13    7   31 1
  14    8   32 1
  15   10   11 1
  16   10   15 1
  17   11   12 1
  18   11   33 1
  19   11   34 1
  20   12   13 1
  21   12   20 1
  22   12   35 1
  23   13   14 1
  24   13   36 1
  25   13   37 1
  26   14   15 1
  27   14   38 1
  28   14   39 1
  29   15   40 1
  30   15   41 1
  31   16   17 1
  32   16   20 1
  33   17   18 2
  34   18   19 1
  35   18   21 1
  36   19   20 2
  37   21   22 1
  38   22   23 ar
  39   22   27 ar
  40   23   24 ar
  41   23   42 1
  42   24   25 ar
  43   24   28 1
  44   25   26 ar
  45   25   43 1
  46   26   27 ar
  47   26   44 1
  48   27   45 1

#	End of record

