#	Name: ASD00431449
#	Creating user name:	WinNT
#	Creation time:	15. 06. 2019 18:35

#	Modifying user name:	WinNT
#	Modification time:	15. 06. 2019 18:35

#	Program:	/corina/corina34_cracker 3.40 0067  02.08.2006

@<TRIPOS>MOLECULE
ASD00431449
  46   50    0    0    0
SMALL
NO_CHARGES


@<TRIPOS>ATOM
   1 C1             0.3488     0.6119    -0.3273 C.2     
   2 N2             0.0126    -0.6867    -0.4277 N.am    
   3 C3             1.0909    -1.4466    -0.6918 C.2     
   4 C4             2.2765    -0.5681    -0.7781 C.ar    
   5 C5             3.6239    -0.7819    -1.0201 C.ar    
   6 C6             4.4990     0.2930    -1.0327 C.ar    
   7 C7             4.0365     1.5757    -0.8056 C.ar    
   8 C8             2.6913     1.8048    -0.5622 C.ar    
   9 C9             1.8049     0.7399    -0.5466 C.ar    
  10 O10           -0.4169     1.5268    -0.0998 O.2     
  11 O11            1.0904    -2.6526    -0.8346 O.2     
  12 C12           -1.3484    -1.2053    -0.2698 C.3     
  13 C13           -1.7786    -1.9093    -1.5584 C.3     
  14 O14           -0.4492    -3.1020     1.1705 O.3     
  15 N15           -0.7476    -3.7505     2.1464 N.2     
  16 C16           -1.9044    -3.3703     2.6374 C.2     
  17 C17           -2.3602    -2.3124     1.7980 C.2     
  18 C18           -1.3828    -2.1860     0.8739 C.2     
  19 S19           -4.1483    -3.3969     4.4572 S.3     
  20 C20           -4.0465    -4.5627     5.7034 C.2     
  21 N21           -2.9453    -5.2405     5.5970 N.2     
  22 C22           -2.1434    -4.9288     4.6026 C.2     
  23 C23           -2.5934    -3.9260     3.8197 C.2     
  24 O24           -4.9818    -4.7517     6.6645 O.3     
  25 C25           -4.7109    -5.6459     7.6512 C.ar    
  26 C26           -3.8356    -5.3084     8.6726 C.ar    
  27 C27           -3.5617    -6.2226     9.6778 C.ar    
  28 C28           -4.1638    -7.4730     9.6600 C.ar    
  29 C29           -5.0351    -7.8072     8.6412 C.ar    
  30 C30           -5.3143    -6.8955     7.6409 C.ar    
  31 O31           -2.7041    -5.8949    10.6798 O.3     
  32 H32            3.9909    -1.7820    -1.1979 H       
  33 H33            5.5494     0.1272    -1.2209 H       
  34 H34            4.7282     2.4051    -0.8176 H       
  35 H35            2.3356     2.8090    -0.3850 H       
  36 H36           -2.0297    -0.3804    -0.0616 H       
  37 H37           -2.7913    -2.2951    -1.4409 H       
  38 H38           -1.7538    -1.1999    -2.3856 H       
  39 H39           -1.0973    -2.7343    -1.7666 H       
  40 H40           -3.2747    -1.7438     1.8814 H       
  41 H41           -1.2041    -5.4323     4.4276 H       
  42 H42           -3.3678    -4.3350     8.6845 H       
  43 H43           -3.9507    -8.1856    10.4431 H       
  44 H44           -5.5023    -8.7808     8.6290 H       
  45 H45           -5.9995    -7.1573     6.8482 H       
  46 H46           -3.1304    -5.4817    11.4430 H       
@<TRIPOS>BOND
   1    1    2 am
   2    1    9 1
   3    1   10 2
   4    2    3 am
   5    2   12 1
   6    3    4 1
   7    3   11 2
   8    4    5 ar
   9    4    9 ar
  10    5    6 ar
  11    5   32 1
  12    6    7 ar
  13    6   33 1
  14    7    8 ar
  15    7   34 1
  16    8    9 ar
  17    8   35 1
  18   12   13 1
  19   12   18 1
  20   12   36 1
  21   13   37 1
  22   13   38 1
  23   13   39 1
  24   14   15 1
  25   14   18 1
  26   15   16 2
  27   16   17 1
  28   16   23 1
  29   17   18 2
  30   17   40 1
  31   19   20 1
  32   19   23 1
  33   20   21 2
  34   20   24 1
  35   21   22 1
  36   22   23 2
  37   22   41 1
  38   24   25 1
  39   25   26 ar
  40   25   30 ar
  41   26   27 ar
  42   26   42 1
  43   27   28 ar
  44   27   31 1
  45   28   29 ar
  46   28   43 1
  47   29   30 ar
  48   29   44 1
  49   30   45 1
  50   31   46 1

#	End of record

