#	Name: ASD03090270
#	Creating user name:	WinNT
#	Creation time:	15. 06. 2019 20:28

#	Modifying user name:	WinNT
#	Modification time:	15. 06. 2019 20:28

#	Program:	/corina/corina34_cracker 3.40 0067  02.08.2006

@<TRIPOS>MOLECULE
ASD03090270
  51   53    0    0    0
SMALL
NO_CHARGES


@<TRIPOS>ATOM
   1 C1             0.2249     0.7634     2.3631 C.ar    
   2 N2             0.3590     0.1979     1.1787 N.ar    
   3 C3             1.5150    -0.2745     0.7606 C.ar    
   4 C4             2.6495    -0.1911     1.5681 C.ar    
   5 C5             2.5390     0.4033     2.8297 C.ar    
   6 C6             1.3019     0.8846     3.2222 C.ar    
   7 C7             3.9479    -0.7228     1.0983 C.2     
   8 N8             6.0313    -3.2029    -0.2676 N.pl3   
   9 C9             7.4175    -3.2647    -0.4442 C.ar    
  10 C10            8.1343    -2.1099    -0.7292 C.ar    
  11 C11            9.5032    -2.1733    -0.9032 C.ar    
  12 C12           10.1605    -3.3869    -0.7943 C.ar    
  13 C13            9.4476    -4.5398    -0.5102 C.ar    
  14 C14            8.0799    -4.4802    -0.3292 C.ar    
  15 N15            4.1595    -1.9255     0.6023 N.2     
  16 C16            5.4479    -2.0602     0.2830 C.2     
  17 N17            6.0791    -0.9451     0.5702 N.2     
  18 N18            5.1254    -0.0589     1.0966 N.pl3   
  19 C19            5.3614     1.3109     1.5595 C.3     
  20 F20           11.4992    -3.4467    -0.9658 F       
  21 C21            5.0892     2.2898     0.4156 C.3     
  22 C22            5.3320     3.6989     0.8917 C.2     
  23 N23            5.1538     4.7352     0.0486 N.am    
  24 O24            5.6876     3.9003     2.0336 O.2     
  25 C25            5.3898     6.1050     0.5115 C.3     
  26 C26            4.7242     4.4919    -1.3307 C.3     
  27 C27            1.6130    -0.9111    -0.6018 C.3     
  28 C28           10.1659    -5.8593    -0.3922 C.3     
  29 F29            9.2419    -6.8691    -0.1029 F       
  30 F30           10.8105    -6.1490    -1.5996 F       
  31 F31           11.1123    -5.7849     0.6355 F       
  32 H32           -0.7406     1.1417     2.6649 H       
  33 H33            3.3968     0.4843     3.4809 H       
  34 H34            1.1790     1.3496     4.1892 H       
  35 H35            5.4753    -3.9541    -0.5276 H       
  36 H36            7.6219    -1.1631    -0.8149 H       
  37 H37           10.0610    -1.2755    -1.1248 H       
  38 H38            7.5245    -5.3795    -0.1074 H       
  39 H39            4.6954     1.5324     2.3934 H       
  40 H40            6.3968     1.4112     1.8849 H       
  41 H41            5.7552     2.0683    -0.4184 H       
  42 H42            4.0538     2.1896     0.0902 H       
  43 H43            6.4306     6.3747     0.3327 H       
  44 H44            4.7385     6.7894    -0.0320 H       
  45 H45            5.1757     6.1699     1.5783 H       
  46 H46            3.6353     4.5015    -1.3791 H       
  47 H47            5.1237     5.2721    -1.9786 H       
  48 H48            5.0940     3.5210    -1.6605 H       
  49 H49            1.9089    -0.1595    -1.3337 H       
  50 H50            2.3568    -1.7076    -0.5780 H       
  51 H51            0.6443    -1.3268    -0.8792 H       
@<TRIPOS>BOND
   1    1    2 ar
   2    1    6 ar
   3    1   32 1
   4    2    3 ar
   5    3    4 ar
   6    3   27 1
   7    4    5 ar
   8    4    7 1
   9    5    6 ar
  10    5   33 1
  11    6   34 1
  12    7   15 2
  13    7   18 1
  14    8    9 1
  15    8   16 1
  16    8   35 1
  17    9   10 ar
  18    9   14 ar
  19   10   11 ar
  20   10   36 1
  21   11   12 ar
  22   11   37 1
  23   12   13 ar
  24   12   20 1
  25   13   14 ar
  26   13   28 1
  27   14   38 1
  28   15   16 1
  29   16   17 2
  30   17   18 1
  31   18   19 1
  32   19   21 1
  33   19   39 1
  34   19   40 1
  35   21   22 1
  36   21   41 1
  37   21   42 1
  38   22   23 am
  39   22   24 2
  40   23   25 1
  41   23   26 1
  42   25   43 1
  43   25   44 1
  44   25   45 1
  45   26   46 1
  46   26   47 1
  47   26   48 1
  48   27   49 1
  49   27   50 1
  50   27   51 1
  51   28   29 1
  52   28   30 1
  53   28   31 1

#	End of record

