#	Name: ASD09740207
#	Creating user name:	WinNT
#	Creation time:	15. 06. 2019 21:22

#	Modifying user name:	WinNT
#	Modification time:	15. 06. 2019 21:22

#	Program:	/corina/corina34_cracker 3.40 0067  02.08.2006

@<TRIPOS>MOLECULE
ASD09740207
  35   37    0    0    0
SMALL
NO_CHARGES


@<TRIPOS>ATOM
   1 O1            -0.0144     1.2085     0.0087 O.3     
   2 N2             0.0021    -0.0041     0.0020 N.2     
   3 C3             1.2411     1.6827    -0.0008 C.2     
   4 N4             2.0453     0.6365    -0.0141 N.2     
   5 C5             1.2345    -0.4420    -0.0121 C.2     
   6 C6             1.6625    -1.8640    -0.0231 C.ar    
   7 C7             1.6456     3.1046     0.0023 C.ar    
   8 C8             0.7213    -2.8966    -0.0197 C.ar    
   9 C9             3.0167    -2.2054    -0.0429 C.ar    
  10 C10            3.3711    -3.5398    -0.0525 C.ar    
  11 N11            2.4510    -4.4844    -0.0437 N.ar    
  12 C12            1.1621    -4.2045    -0.0302 C.ar    
  13 C13            2.9984     3.4486    -0.0092 C.ar    
  14 C14            3.3691     4.7772    -0.0062 C.ar    
  15 C15            2.4033     5.7681     0.0085 C.ar    
  16 C16            1.0610     5.4340     0.0204 C.ar    
  17 C17            0.6766     4.1088     0.0109 C.ar    
  18 C18           -0.7534    -2.5869    -0.0044 C.3     
  19 C19            2.8157     7.2176     0.0122 C.3     
  20 C20            0.0161     6.5198     0.0375 C.3     
  21 F21           -1.2576     5.9412     0.0473 F       
  22 F22            0.1797     7.3065     1.1827 F       
  23 F23            0.1561     7.3198    -1.1017 F       
  24 H24            3.7754    -1.4369    -0.0509 H       
  25 H25            4.4157    -3.8136    -0.0678 H       
  26 H26            0.4421    -5.0095    -0.0234 H       
  27 H27            3.7531     2.6762    -0.0200 H       
  28 H28            4.4154     5.0447    -0.0151 H       
  29 H29           -0.3717     3.8493     0.0202 H       
  30 H30           -1.1185    -2.5068    -1.0283 H       
  31 H31           -1.2872    -3.3858     0.5103 H       
  32 H32           -0.9212    -1.6439     0.5160 H       
  33 H33            2.9050     7.5725    -1.0145 H       
  34 H34            2.0642     7.8078     0.5366 H       
  35 H35            3.7761     7.3209     0.5171 H       
@<TRIPOS>BOND
   1    1    2 1
   2    1    3 1
   3    2    5 2
   4    3    4 2
   5    3    7 1
   6    4    5 1
   7    5    6 1
   8    6    8 ar
   9    6    9 ar
  10    7   13 ar
  11    7   17 ar
  12    8   18 1
  13    8   12 ar
  14    9   10 ar
  15    9   24 1
  16   10   11 ar
  17   10   25 1
  18   11   12 ar
  19   12   26 1
  20   13   14 ar
  21   13   27 1
  22   14   15 ar
  23   14   28 1
  24   15   16 ar
  25   15   19 1
  26   16   17 ar
  27   16   20 1
  28   17   29 1
  29   18   30 1
  30   18   31 1
  31   18   32 1
  32   19   33 1
  33   19   34 1
  34   19   35 1
  35   20   21 1
  36   20   22 1
  37   20   23 1

#	End of record

