#	Name: ASD05430697
#	Creating user name:	WinNT
#	Creation time:	15. 06. 2019 21:00

#	Modifying user name:	WinNT
#	Modification time:	15. 06. 2019 21:00

#	Program:	/corina/corina34_cracker 3.40 0067  02.08.2006

@<TRIPOS>MOLECULE
ASD05430697
  23   23    0    0    0
SMALL
NO_CHARGES


@<TRIPOS>ATOM
   1 C1            -0.0167     1.3777     0.0096 C.ar    
   2 C2             0.0021    -0.0041     0.0020 C.ar    
   3 N3            -1.1211    -0.6951     0.0095 N.ar    
   4 C4            -2.3977     1.2772     0.0433 C.ar    
   5 C5            -1.2359     2.0373     0.0306 C.ar    
   6 C6             1.2726     2.1580     0.0015 C.3     
   7 C7            -2.2994    -0.1038     0.0244 C.ar    
   8 C8             2.4557     1.1880    -0.0150 C.3     
   9 C9             1.3235     3.0458    -1.2435 C.3     
  10 C10            1.3474     3.0324     1.2548 C.3     
  11 F11           -3.6080     1.8772     0.0638 F       
  12 H12            0.9483    -0.5245    -0.0105 H       
  13 H13           -1.2807     3.1162     0.0451 H       
  14 H14           -3.1977    -0.7033     0.0336 H       
  15 H15            2.4024     0.5651    -0.9079 H       
  16 H16            3.3882     1.7524    -0.0209 H       
  17 H17            2.4194     0.5555     0.8720 H       
  18 H18            0.4807     3.7368    -1.2318 H       
  19 H19            2.2560     3.6102    -1.2494 H       
  20 H20            1.2702     2.4229    -2.1364 H       
  21 H21            1.3111     2.3999     2.1418 H       
  22 H22            2.2799     3.5968     1.2489 H       
  23 H23            0.5045     3.7234     1.2666 H       
@<TRIPOS>BOND
   1    1    2 ar
   2    1    6 1
   3    1    5 ar
   4    2    3 ar
   5    2   12 1
   6    3    7 ar
   7    4    5 ar
   8    4   11 1
   9    4    7 ar
  10    5   13 1
  11    6    8 1
  12    6    9 1
  13    6   10 1
  14    7   14 1
  15    8   15 1
  16    8   16 1
  17    8   17 1
  18    9   18 1
  19    9   19 1
  20    9   20 1
  21   10   21 1
  22   10   22 1
  23   10   23 1

#	End of record

