#	Name: ASD02038635
#	Creating user name:	WinNT
#	Creation time:	15. 06. 2019 20:17

#	Modifying user name:	WinNT
#	Modification time:	15. 06. 2019 20:17

#	Program:	/corina/corina34_cracker 3.40 0067  02.08.2006

@<TRIPOS>MOLECULE
ASD02038635
  54   56    0    0    0
SMALL
NO_CHARGES


@<TRIPOS>ATOM
   1 C1             1.1365     1.2148    -0.4103 C.ar    
   2 C2             1.3177    -0.1540    -0.3643 C.ar    
   3 C3            -0.1412     1.7448    -0.4183 C.ar    
   4 C4            -1.2421     0.9050    -0.3799 C.ar    
   5 C5            -1.0656    -0.4649    -0.3334 C.ar    
   6 C6             0.2164    -0.9985    -0.3262 C.ar    
   7 N7             0.3981    -2.3859    -0.2797 N.am    
   8 C8            -0.6729    -3.3805    -0.1172 C.3     
   9 C9             0.0711    -4.7300    -0.1329 C.3     
  10 N10            1.4822    -4.3524    -0.3024 N.am    
  11 C11            1.5743    -3.0184    -0.3817 C.2     
  12 C12            2.6077    -5.2871    -0.3788 C.3     
  13 C13            2.8456    -5.6807    -1.8380 C.3     
  14 C14            4.0211    -6.6569    -1.9178 C.3     
  15 C15            4.1802    -7.1469    -3.3584 C.3     
  16 O16            5.2013    -8.1451    -3.4120 O.3     
  17 C17            5.4701    -8.6888    -4.6293 C.ar    
  18 C18            6.4496    -9.6631    -4.7522 C.ar    
  19 C19            4.7606    -8.2727    -5.7461 C.ar    
  20 C20            5.0326    -8.8246    -6.9826 C.ar    
  21 C21            6.0170    -9.7960    -7.1076 C.ar    
  22 C22            6.7232   -10.2157    -5.9880 C.ar    
  23 O23            5.2185    -5.9954    -1.5046 O.3     
  24 O24            2.6311    -2.4342    -0.5244 O.2     
  25 Cl25          -0.3654     3.4653    -0.4761 Cl      
  26 Cl26          -2.8441     1.5735    -0.3895 Cl      
  27 N27            6.2932   -10.3557    -8.3600 N.am    
  28 S28            7.1448    -9.4887    -9.4848 S.o2    
  29 O29            7.2559   -10.3687   -10.5950 O.2     
  30 O30            6.4367    -8.2613    -9.5908 O.2     
  31 C31            8.7673    -9.2233    -8.7182 C.3     
  32 H32            1.9933     1.8718    -0.4355 H       
  33 H33            2.3157    -0.5669    -0.3585 H       
  34 H34           -1.9238    -1.1198    -0.3027 H       
  35 H35           -1.1866    -3.2378     0.8335 H       
  36 H36           -1.3778    -3.3226    -0.9466 H       
  37 H37           -0.0732    -5.2573     0.8101 H       
  38 H38           -0.2644    -5.3421    -0.9700 H       
  39 H39            3.5034    -4.8106     0.0197 H       
  40 H40            2.3799    -6.1786     0.2055 H       
  41 H41            1.9499    -6.1573    -2.2365 H       
  42 H42            3.0734    -4.7892    -2.4223 H       
  43 H43            3.8317    -7.5078    -1.2634 H       
  44 H44            3.2379    -7.5722    -3.7037 H       
  45 H45            4.4571    -6.3093    -3.9986 H       
  46 H46            6.9988    -9.9894    -3.8814 H       
  47 H47            3.9950    -7.5172    -5.6487 H       
  48 H48            4.4795    -8.5010    -7.8520 H       
  49 H49            7.4890   -10.9711    -6.0843 H       
  50 H50            5.4491    -5.2264    -2.0437 H       
  51 H51            5.9858   -11.2516    -8.5693 H       
  52 H52            9.2697   -10.1821    -8.5899 H       
  53 H53            9.3707    -8.5796    -9.3583 H       
  54 H54            8.6364    -8.7487    -7.7457 H       
@<TRIPOS>BOND
   1    1    2 ar
   2    1    3 ar
   3    1   32 1
   4    2    6 ar
   5    2   33 1
   6    3    4 ar
   7    3   25 1
   8    4    5 ar
   9    4   26 1
  10    5    6 ar
  11    5   34 1
  12    6    7 1
  13    7    8 1
  14    7   11 am
  15    8    9 1
  16    8   35 1
  17    8   36 1
  18    9   10 1
  19    9   37 1
  20    9   38 1
  21   10   11 am
  22   10   12 1
  23   11   24 2
  24   12   13 1
  25   12   39 1
  26   12   40 1
  27   13   14 1
  28   13   41 1
  29   13   42 1
  30   14   15 1
  31   14   23 1
  32   14   43 1
  33   15   16 1
  34   15   44 1
  35   15   45 1
  36   16   17 1
  37   17   18 ar
  38   17   19 ar
  39   18   22 ar
  40   18   46 1
  41   19   20 ar
  42   19   47 1
  43   20   21 ar
  44   20   48 1
  45   21   22 ar
  46   21   27 1
  47   22   49 1
  48   23   50 1
  49   27   28 am
  50   27   51 1
  51   28   29 2
  52   28   30 2
  53   28   31 1
  54   31   52 1
  55   31   53 1
  56   31   54 1

#	End of record

