#	Name: ASD01815582
#	Creating user name:	WinNT
#	Creation time:	15. 06. 2019 19:33

#	Modifying user name:	WinNT
#	Modification time:	15. 06. 2019 19:33

#	Program:	/corina/corina34_cracker 3.40 0067  02.08.2006

@<TRIPOS>MOLECULE
ASD01815582
  35   37    0    0    0
SMALL
NO_CHARGES


@<TRIPOS>ATOM
   1 C1             0.0915     1.4870     0.1052 C.ar    
   2 C2             0.0693     0.1008     0.1003 C.ar    
   3 C3             1.2430    -0.6235     0.0523 C.ar    
   4 C4             2.4688     0.0382     0.0083 C.ar    
   5 C5             2.4898     1.4434     0.0133 C.ar    
   6 C6             1.2938     2.1640     0.0621 C.ar    
   7 N7             3.6483    -0.6746    -0.0393 N.pl3   
   8 C8             4.8502    -0.0860    -0.0824 C.2     
   9 C9             4.9973     1.2864    -0.0818 C.2     
  10 C10            3.7924     2.1309    -0.0336 C.2     
  11 O11            3.8691     3.3471    -0.0314 O.2     
  12 C12            6.3344     1.8945    -0.1290 C.2     
  13 O13            7.3225     1.1875    -0.1689 O.2     
  14 O14            6.4651     3.2362    -0.1279 O.3     
  15 C15            3.5837    -2.1382    -0.0425 C.3     
  16 C16            3.4393    -2.6316    -1.4591 C.ar    
  17 C17            2.2315    -3.1336    -1.8965 C.ar    
  18 C18            2.0972    -3.5871    -3.1970 C.ar    
  19 C19            3.1718    -3.5406    -4.0670 C.ar    
  20 C20            4.3860    -3.0413    -3.6425 C.ar    
  21 C21            4.5267    -2.5763    -2.3337 C.ar    
  22 F22            1.2039    -1.9739     0.0486 F       
  23 F23            1.3138     3.5149     0.0666 F       
  24 C24            5.7839    -2.0568    -1.8862 C.1     
  25 N25            6.7812    -1.6447    -1.5312 N.1     
  26 H26           -0.8358     2.0396     0.1385 H       
  27 H27           -0.8773    -0.4181     0.1346 H       
  28 H28            5.7340    -0.7057    -0.1184 H       
  29 H29            7.3646     3.5897    -0.1599 H       
  30 H30            4.4976    -2.5432     0.3920 H       
  31 H31            2.7260    -2.4652     0.5453 H       
  32 H32            1.3886    -3.1731    -1.2225 H       
  33 H33            1.1492    -3.9796    -3.5343 H       
  34 H34            3.0602    -3.8962    -5.0807 H       
  35 H35            5.2242    -3.0059    -4.3226 H       
@<TRIPOS>BOND
   1    1    2 ar
   2    1    6 ar
   3    1   26 1
   4    2    3 ar
   5    2   27 1
   6    3    4 ar
   7    3   22 1
   8    4    5 ar
   9    4    7 1
  10    5    6 ar
  11    5   10 1
  12    6   23 1
  13    7    8 1
  14    7   15 1
  15    8    9 2
  16    8   28 1
  17    9   10 1
  18    9   12 1
  19   10   11 2
  20   12   13 2
  21   12   14 1
  22   14   29 1
  23   15   16 1
  24   15   30 1
  25   15   31 1
  26   16   17 ar
  27   16   21 ar
  28   17   18 ar
  29   17   32 1
  30   18   19 ar
  31   18   33 1
  32   19   20 ar
  33   19   34 1
  34   20   21 ar
  35   20   35 1
  36   21   24 1
  37   24   25 3

#	End of record

