#	Name: ASD07300139
#	Creating user name:	WinNT
#	Creation time:	15. 06. 2019 21:09

#	Modifying user name:	WinNT
#	Modification time:	15. 06. 2019 21:09

#	Program:	/corina/corina34_cracker 3.40 0067  02.08.2006

@<TRIPOS>MOLECULE
ASD07300139
  43   47    0    0    0
SMALL
NO_CHARGES


@<TRIPOS>ATOM
   1 C1            -0.0169     1.3941     0.0097 C.ar    
   2 C2             0.0021    -0.0041     0.0020 C.ar    
   3 C3             1.2199    -0.6674    -0.0135 C.ar    
   4 C4             2.3808     0.0923    -0.0208 C.ar    
   5 C5             2.2878     1.4713    -0.0125 C.ar    
   6 N6             1.1161     2.0768     0.0026 N.ar    
   7 C7            -2.1139     0.6622     0.0347 C.2     
   8 N8            -1.3542     1.7734     0.0301 N.am    
   9 N9            -1.3234    -0.4279     0.0132 N.am    
  10 O10           -3.3304     0.6453     0.0517 O.2     
  11 N11           -3.4930     6.8833     0.0900 N.pl3   
  12 C12           -4.8307     6.5803     0.1059 C.2     
  13 C13           -4.9978     5.2493     0.0999 C.2     
  14 C14           -3.6615     4.6469     0.0784 C.ar    
  15 C15           -3.1929     3.3321     0.0641 C.ar    
  16 C16           -1.8318     3.0926     0.0441 C.ar    
  17 C17           -0.9321     4.1568     0.0383 C.ar    
  18 C18           -1.3849     5.4570     0.0528 C.ar    
  19 C19           -2.7504     5.7179     0.0729 C.ar    
  20 C20           -2.9637     8.1698     0.0858 C.ar    
  21 N21           -3.7867     9.2069     0.0982 N.ar    
  22 C22           -3.3167    10.4433     0.0951 C.ar    
  23 C23           -1.9454    10.6451     0.0786 C.ar    
  24 C24           -1.1131     9.5366     0.0659 C.ar    
  25 N25           -1.6492     8.3274     0.0750 N.ar    
  26 C26           -1.7801    -1.8199     0.0099 C.3     
  27 C27           -1.9243    -2.3128     1.4512 C.3     
  28 H28            1.2635    -1.7465    -0.0193 H       
  29 H29            3.3476    -0.3890    -0.0325 H       
  30 H30            3.1908     2.0638    -0.0178 H       
  31 H31           -5.6306     7.3057     0.1213 H       
  32 H32           -5.9397     4.7209     0.1094 H       
  33 H33           -3.8897     2.5070     0.0690 H       
  34 H34            0.1296     3.9599     0.0227 H       
  35 H35           -0.6791     6.2745     0.0489 H       
  36 H36           -3.9930    11.2852     0.1049 H       
  37 H37           -1.5345    11.6438     0.0753 H       
  38 H38           -0.0401     9.6588     0.0529 H       
  39 H39           -2.7442    -1.8849    -0.4945 H       
  40 H40           -1.0530    -2.4396    -0.5150 H       
  41 H41           -2.2640    -3.3485     1.4487 H       
  42 H42           -0.9601    -2.2479     1.9555 H       
  43 H43           -2.6513    -1.6931     1.9760 H       
@<TRIPOS>BOND
   1    1    2 ar
   2    1    6 ar
   3    1    8 1
   4    2    3 ar
   5    2    9 1
   6    3    4 ar
   7    3   28 1
   8    4    5 ar
   9    4   29 1
  10    5    6 ar
  11    5   30 1
  12    7    8 am
  13    7    9 am
  14    7   10 2
  15    8   16 1
  16    9   26 1
  17   11   12 1
  18   11   19 1
  19   11   20 1
  20   12   13 2
  21   12   31 1
  22   13   14 1
  23   13   32 1
  24   14   15 ar
  25   14   19 ar
  26   15   16 ar
  27   15   33 1
  28   16   17 ar
  29   17   18 ar
  30   17   34 1
  31   18   19 ar
  32   18   35 1
  33   20   21 ar
  34   20   25 ar
  35   21   22 ar
  36   22   23 ar
  37   22   36 1
  38   23   24 ar
  39   23   37 1
  40   24   25 ar
  41   24   38 1
  42   26   27 1
  43   26   39 1
  44   26   40 1
  45   27   41 1
  46   27   42 1
  47   27   43 1

#	End of record

