#	Name: ASD02270013
#	Creating user name:	WinNT
#	Creation time:	15. 06. 2019 20:20

#	Modifying user name:	WinNT
#	Modification time:	15. 06. 2019 20:20

#	Program:	/corina/corina34_cracker 3.40 0067  02.08.2006

@<TRIPOS>MOLECULE
ASD02270013
  61   65    0    0    0
SMALL
NO_CHARGES


@<TRIPOS>ATOM
   1 N1            -0.2332     1.3103     0.1491 N.am    
   2 C2            -0.0766    -0.1487     0.2081 C.3     
   3 N3             1.3689    -0.4007     0.4141 N.3     
   4 C4             2.0043     0.7943    -0.1791 C.3     
   5 C5             0.9654     1.8846    -0.0858 C.2     
   6 O6             1.1721     3.0739    -0.2024 O.2     
   7 C7             3.2501     1.1760     0.6158 C.3     
   8 C8             3.9168     2.3888    -0.0396 C.3     
   9 N9             4.2619     2.0654    -1.4299 N.3     
  10 C10            3.0624     1.7606    -2.2203 C.3     
  11 C11            2.3670     0.5271    -1.6374 C.3     
  12 C12            5.0366     3.1508    -2.0462 C.3     
  13 C13            5.4830     2.7272    -3.4469 C.3     
  14 N14            6.2153     1.4610    -3.3640 N.am    
  15 C15            6.7071     0.8925    -4.4826 C.2     
  16 C16            7.4422    -0.3785    -4.3994 C.2     
  17 C17            7.9879    -1.0431    -5.4512 C.2     
  18 O18            6.5429     1.4306    -5.5612 O.2     
  19 C19            1.7735    -1.5628    -0.2468 C.ar    
  20 C20            2.7357    -2.3878     0.3217 C.ar    
  21 C21            3.1331    -3.5363    -0.3342 C.ar    
  22 C22            2.5743    -3.8655    -1.5556 C.ar    
  23 C23            1.6162    -3.0464    -2.1243 C.ar    
  24 C24            1.2104    -1.8992    -1.4713 C.ar    
  25 C25            4.1665     4.4054    -2.1459 C.3     
  26 N26            7.6930    -1.0840    -3.2384 N.pl3   
  27 C27            8.4037    -2.2178    -3.5540 C.ar    
  28 C28            8.6029    -2.2151    -4.9484 C.ar    
  29 C29            8.9124    -3.2663    -2.7923 C.ar    
  30 C30            9.5997    -4.2884    -3.4073 C.ar    
  31 C31            9.7923    -4.2850    -4.7833 C.ar    
  32 C32            9.3068    -3.2664    -5.5503 C.ar    
  33 H33           -1.0705     1.7878     0.2580 H       
  34 H34           -0.6502    -0.5538     1.0418 H       
  35 H35           -0.4059    -0.5992    -0.7281 H       
  36 H36            2.9670     1.4249     1.6385 H       
  37 H37            3.9471     0.3381     0.6243 H       
  38 H38            3.2292     3.2345    -0.0232 H       
  39 H39            4.8227     2.6462     0.5092 H       
  40 H40            2.3809     2.6107    -2.1889 H       
  41 H41            3.3485     1.5622    -3.2532 H       
  42 H42            3.0382    -0.3298    -1.6942 H       
  43 H43            1.4605     0.3181    -2.2054 H       
  44 H44            5.9131     3.3642    -1.4345 H       
  45 H45            4.6079     2.5997    -4.0841 H       
  46 H46            6.1313     3.4948    -3.8694 H       
  47 H47            6.3462     1.0319    -2.5040 H       
  48 H48            7.9574    -0.7334    -6.4854 H       
  49 H49            3.1728    -2.1312     1.2754 H       
  50 H50            3.8814    -4.1780     0.1070 H       
  51 H51            2.8872    -4.7640    -2.0666 H       
  52 H52            1.1818    -3.3064    -3.0783 H       
  53 H53            0.4619    -1.2601    -1.9159 H       
  54 H54            3.8485     4.7073    -1.1480 H       
  55 H55            4.7413     5.2108    -2.6031 H       
  56 H56            3.2900     4.1920    -2.7576 H       
  57 H57            7.4137    -0.8225    -2.3471 H       
  58 H58            8.7685    -3.2776    -1.7220 H       
  59 H59            9.9934    -5.1007    -2.8143 H       
  60 H60           10.3344    -5.0944    -5.2496 H       
  61 H61            9.4614    -3.2725    -6.6192 H       
@<TRIPOS>BOND
   1    1    2 1
   2    1    5 am
   3    1   33 1
   4    2    3 1
   5    2   34 1
   6    2   35 1
   7    3    4 1
   8    3   19 1
   9    4    5 1
  10    4    7 1
  11    4   11 1
  12    5    6 2
  13    7    8 1
  14    7   36 1
  15    7   37 1
  16    8    9 1
  17    8   38 1
  18    8   39 1
  19    9   10 1
  20    9   12 1
  21   10   11 1
  22   10   40 1
  23   10   41 1
  24   11   42 1
  25   11   43 1
  26   12   13 1
  27   12   25 1
  28   12   44 1
  29   13   14 1
  30   13   45 1
  31   13   46 1
  32   14   15 am
  33   14   47 1
  34   15   16 1
  35   15   18 2
  36   16   26 1
  37   16   17 2
  38   17   28 1
  39   17   48 1
  40   19   20 ar
  41   19   24 ar
  42   20   21 ar
  43   20   49 1
  44   21   22 ar
  45   21   50 1
  46   22   23 ar
  47   22   51 1
  48   23   24 ar
  49   23   52 1
  50   24   53 1
  51   25   54 1
  52   25   55 1
  53   25   56 1
  54   26   27 1
  55   26   57 1
  56   27   28 ar
  57   27   29 ar
  58   28   32 ar
  59   29   30 ar
  60   29   58 1
  61   30   31 ar
  62   30   59 1
  63   31   32 ar
  64   31   60 1
  65   32   61 1

#	End of record

