#	Name: ASD02408390
#	Creating user name:	WinNT
#	Creation time:	15. 06. 2019 20:21

#	Modifying user name:	WinNT
#	Modification time:	15. 06. 2019 20:21

#	Program:	/corina/corina34_cracker 3.40 0067  02.08.2006

@<TRIPOS>MOLECULE
ASD02408390
  28   29    0    0    0
SMALL
NO_CHARGES


@<TRIPOS>ATOM
   1 C1            -0.0171     1.4109     0.0098 C.2     
   2 C2             0.0021    -0.0041     0.0020 C.2     
   3 C3             1.3096     1.8358    -0.0006 C.2     
   4 N4             2.0814     0.7265    -0.0139 N.pl3   
   5 N5             1.2452    -0.3951    -0.0120 N.2     
   6 C6             3.4825     0.7035    -0.0274 C.ar    
   7 C7             4.1684    -0.2958     0.6500 C.ar    
   8 C8             5.5494    -0.3159     0.6344 C.ar    
   9 C9             6.2488     0.6577    -0.0549 C.ar    
  10 C10            5.5685     1.6544    -0.7300 C.ar    
  11 C11            4.1875     1.6767    -0.7230 C.ar    
  12 N12            1.7521     3.1427     0.0022 N.pl3   
  13 C13           -1.2084     2.2679     0.0204 C.2     
  14 N14           -2.4371     1.7140     0.0239 N.am    
  15 O15           -1.0869     3.4787     0.0259 O.2     
  16 C16            7.7555     0.6327    -0.0698 C.3     
  17 H17           -0.8643    -0.6489     0.0071 H       
  18 H18            3.6228    -1.0562     1.1887 H       
  19 H19            6.0835    -1.0927     1.1614 H       
  20 H20            6.1175     2.4137    -1.2672 H       
  21 H21            3.6567     2.4552    -1.2508 H       
  22 H22            1.1121     3.8715     0.0126 H       
  23 H23            2.7033     3.3327    -0.0062 H       
  24 H24           -2.5340     0.7489     0.0195 H       
  25 H25           -3.2245     2.2805     0.0309 H       
  26 H26            8.1007     0.0417    -0.9181 H       
  27 H27            8.1349     1.6507    -0.1578 H       
  28 H28            8.1207     0.1876     0.8557 H       
@<TRIPOS>BOND
   1    1    2 1
   2    1    3 2
   3    1   13 1
   4    2    5 2
   5    2   17 1
   6    3    4 1
   7    3   12 1
   8    4    5 1
   9    4    6 1
  10    6    7 ar
  11    6   11 ar
  12    7    8 ar
  13    7   18 1
  14    8    9 ar
  15    8   19 1
  16    9   10 ar
  17    9   16 1
  18   10   11 ar
  19   10   20 1
  20   11   21 1
  21   12   22 1
  22   12   23 1
  23   13   14 am
  24   13   15 2
  25   14   24 1
  26   14   25 1
  27   16   26 1
  28   16   27 1
  29   16   28 1

#	End of record

