#	Name: ASD03930181
#	Creating user name:	WinNT
#	Creation time:	15. 06. 2019 20:47

#	Modifying user name:	WinNT
#	Modification time:	15. 06. 2019 20:47

#	Program:	/corina/corina34_cracker 3.40 0067  02.08.2006

@<TRIPOS>MOLECULE
ASD03930181
  24   24    0    0    0
SMALL
NO_CHARGES


@<TRIPOS>ATOM
   1 C1            -0.1721     1.4390     0.2173 C.ar    
   2 C2             0.8979     1.8840    -0.5456 C.ar    
   3 C3             2.1323     1.2611    -0.4353 C.ar    
   4 C4             2.2940     0.1992     0.4336 C.ar    
   5 C5             1.2260    -0.2429     1.1933 C.ar    
   6 C6            -0.0063     0.3771     1.0848 C.ar    
   7 S7            -1.7397     2.2327     0.0849 S.o2    
   8 O8            -2.6202     1.5288     0.9501 O.2     
   9 O9            -1.4935     3.6279     0.1942 O.2     
  10 N10           -2.2915     1.9743    -1.4549 N.am    
  11 O11            0.7367     2.9285    -1.4002 O.3     
  12 C12           -2.5903     0.6133    -1.9072 C.3     
  13 C13           -3.4453     0.6733    -3.1746 C.3     
  14 Cl14          -3.8131    -1.0017    -3.7313 Cl      
  15 Br15           1.4500    -1.6969     2.3814 Br      
  16 H16            2.9664     1.6057    -1.0286 H       
  17 H17            3.2549    -0.2863     0.5195 H       
  18 H18           -0.8389     0.0304     1.6788 H       
  19 H19           -2.4168     2.7242    -2.0574 H       
  20 H20            0.8466     3.7956    -0.9866 H       
  21 H21           -1.6591     0.0890    -2.1217 H       
  22 H22           -3.1348     0.0823    -1.1264 H       
  23 H23           -4.3766     1.1977    -2.9602 H       
  24 H24           -2.9008     1.2044    -3.9554 H       
@<TRIPOS>BOND
   1    1    2 ar
   2    1    6 ar
   3    1    7 1
   4    2    3 ar
   5    2   11 1
   6    3    4 ar
   7    3   16 1
   8    4    5 ar
   9    4   17 1
  10    5    6 ar
  11    5   15 1
  12    6   18 1
  13    7    8 2
  14    7    9 2
  15    7   10 am
  16   10   12 1
  17   10   19 1
  18   11   20 1
  19   12   13 1
  20   12   21 1
  21   12   22 1
  22   13   14 1
  23   13   23 1
  24   13   24 1

#	End of record

