#	Name: ASD01120347
#	Creating user name:	WinNT
#	Creation time:	15. 06. 2019 18:59

#	Modifying user name:	WinNT
#	Modification time:	15. 06. 2019 18:59

#	Program:	/corina/corina34_cracker 3.40 0067  02.08.2006

@<TRIPOS>MOLECULE
ASD01120347
  39   40    0    0    0
SMALL
NO_CHARGES


@<TRIPOS>ATOM
   1 C1            -0.0187     1.5258     0.0104 C.3     
   2 C2             0.0021    -0.0041     0.0020 C.3     
   3 O3            -1.3601    -0.5067     0.0123 O.3     
   4 C4            -1.5187    -1.8459     0.0066 C.2     
   5 O5            -0.5445    -2.5734    -0.0066 O.2     
   6 C6            -2.8669    -2.4252     0.0164 C.2     
   7 N7            -4.0490    -1.7069     0.0316 N.pl3   
   8 C8            -5.1033    -2.5893     0.0369 C.ar    
   9 C9            -4.5648    -3.8907     0.0248 C.ar    
  10 C10           -3.1549    -3.7552     0.0061 C.2     
  11 Br11          -1.8987    -5.1684    -0.0162 Br      
  12 C12           -5.4244    -4.9970     0.0274 C.ar    
  13 C13           -6.7754    -4.8068     0.0417 C.ar    
  14 C14           -7.3092    -3.5241     0.0537 C.ar    
  15 C15           -6.4854    -2.4211     0.0510 C.ar    
  16 N16           -7.0673    -1.0601     0.0644 N.pl3   
  17 O17           -8.2766    -0.9149     0.0778 O.2     
  18 O18           -6.3369    -0.0854     0.0619 O.2     
  19 C19           -7.6971    -5.9991     0.0441 C.3     
  20 C20           -7.9949    -6.4106     1.4873 C.3     
  21 C21           -9.0270    -7.5401     1.4929 C.3     
  22 C22           -6.7064    -6.8938     2.1560 C.3     
  23 H23            1.0039     1.9031     0.0027 H       
  24 H24           -0.5459     1.8868    -0.8726 H       
  25 H25           -0.5289     1.8773     0.9072 H       
  26 H26            0.5123    -0.3556    -0.8948 H       
  27 H27            0.5293    -0.3651     0.8851 H       
  28 H28           -4.1221    -0.7397     0.0379 H       
  29 H29           -5.0187    -5.9978     0.0178 H       
  30 H30           -8.3809    -3.3911     0.0650 H       
  31 H31           -8.6284    -5.7393    -0.4592 H       
  32 H32           -7.2203    -6.8279    -0.4791 H       
  33 H33           -8.3897    -5.5550     2.0350 H       
  34 H34           -8.6321    -8.3958     0.9451 H       
  35 H35           -9.2391    -7.8333     2.5210 H       
  36 H36           -9.9449    -7.1959     1.0164 H       
  37 H37           -6.3116    -7.7495     1.6083 H       
  38 H38           -5.9712    -6.0892     2.1520 H       
  39 H39           -6.9186    -7.1871     3.1842 H       
@<TRIPOS>BOND
   1    1    2 1
   2    1   23 1
   3    1   24 1
   4    1   25 1
   5    2    3 1
   6    2   26 1
   7    2   27 1
   8    3    4 1
   9    4    5 2
  10    4    6 1
  11    6    7 1
  12    6   10 2
  13    7    8 1
  14    7   28 1
  15    8    9 ar
  16    8   15 ar
  17    9   10 1
  18    9   12 ar
  19   10   11 1
  20   12   13 ar
  21   12   29 1
  22   13   14 ar
  23   13   19 1
  24   14   15 ar
  25   14   30 1
  26   15   16 1
  27   16   17 2
  28   16   18 2
  29   19   20 1
  30   19   31 1
  31   19   32 1
  32   20   21 1
  33   20   22 1
  34   20   33 1
  35   21   34 1
  36   21   35 1
  37   21   36 1
  38   22   37 1
  39   22   38 1
  40   22   39 1

#	End of record

