#	Name: ASD05940016
#	Creating user name:	WinNT
#	Creation time:	15. 06. 2019 21:04

#	Modifying user name:	WinNT
#	Modification time:	15. 06. 2019 21:04

#	Program:	/corina/corina34_cracker 3.40 0067  02.08.2006

@<TRIPOS>MOLECULE
ASD05940016
  61   66    0    0    0
SMALL
NO_CHARGES


@<TRIPOS>ATOM
   1 N1            -0.0159     1.3181     0.0093 N.ar    
   2 C2             0.0021    -0.0041     0.0020 C.ar    
   3 N3             1.1319    -0.6930    -0.0101 N.ar    
   4 C4             2.3066    -0.0681    -0.0158 C.ar    
   5 C5             2.3274     1.3257    -0.0126 C.ar    
   6 C6             1.1197     2.0168     0.0022 C.ar    
   7 N7             3.4912    -0.7843    -0.0194 N.3     
   8 C8             4.5325    -0.1239    -0.8126 C.3     
   9 C9             4.6626     1.3202    -0.4024 C.2     
  10 N10            3.5574     2.0048    -0.0283 N.am    
  11 N11            1.0976     3.4049     0.0085 N.pl3   
  12 O12           -1.1750    -0.6756     0.0076 O.3     
  13 C13            3.2722    -2.1617    -0.4807 C.3     
  14 O14            5.7473     1.8634    -0.4080 O.2     
  15 C15           -2.3694     0.1089     0.0211 C.3     
  16 C16           -3.5224    -0.6342    -0.6982 C.3     
  17 C17            4.6022    -2.8335    -0.7061 C.ar    
  18 C18            5.2288    -3.5280     0.3170 C.ar    
  19 C19            6.4480    -4.1319     0.0729 C.ar    
  20 N20            7.0143    -4.0523    -1.1152 N.ar    
  21 C21            6.4472    -3.4002    -2.1114 C.ar    
  22 C22            5.2256    -2.7765    -1.9435 C.ar    
  23 C23            7.1369    -3.3390    -3.4499 C.3     
  24 N24            8.1004    -2.2301    -3.4540 N.3     
  25 C25           -2.9093     0.2619     1.4647 C.3     
  26 C26           -4.4128     0.5522     1.2775 C.3     
  27 C27           -4.8026    -0.0176    -0.0977 C.3     
  28 C28           -5.3720    -0.6359     1.1808 C.3     
  29 C29            8.9606    -2.2821    -4.6504 C.3     
  30 C30            8.8055    -0.9332    -5.3839 C.3     
  31 C31            8.3081     0.0184    -4.2641 C.3     
  32 C32            7.4063    -0.9250    -3.4296 C.3     
  33 H33            5.4840    -0.6315    -0.6537 H       
  34 H34            4.2697    -0.1768    -1.8692 H       
  35 H35            3.6126     2.9403     0.2223 H       
  36 H36            1.9298     3.9032     0.0026 H       
  37 H37            0.2500     3.8765     0.0188 H       
  38 H38            2.7102    -2.7125     0.2736 H       
  39 H39            2.7096    -2.1471    -1.4142 H       
  40 H40           -2.1947     1.0837    -0.4343 H       
  41 H41           -3.4803    -0.4549    -1.7725 H       
  42 H42           -3.4782    -1.7026    -0.4867 H       
  43 H43            4.7704    -3.5962     1.2925 H       
  44 H44            6.9427    -4.6749     0.8647 H       
  45 H45            4.7663    -2.2439    -2.7631 H       
  46 H46            7.6616    -4.2770    -3.6315 H       
  47 H47            6.3961    -3.1795    -4.2334 H       
  48 H48           -2.7661    -0.6618     2.0255 H       
  49 H49           -2.4198     1.0951     1.9689 H       
  50 H50           -4.7829     1.5200     1.6156 H       
  51 H51           -5.4599     0.5306    -0.7726 H       
  52 H52           -4.9928    -1.6136     1.4783 H       
  53 H53           -6.4233    -0.4526     1.4028 H       
  54 H54            9.9997    -2.4257    -4.3541 H       
  55 H55            8.6423    -3.0967    -5.3009 H       
  56 H56            9.7643    -0.5965    -5.7781 H       
  57 H57            8.0658    -1.0107    -6.1807 H       
  58 H58            9.1419     0.3896    -3.6683 H       
  59 H59            7.7302     0.8433    -4.6809 H       
  60 H60            6.4207    -1.0107    -3.8871 H       
  61 H61            7.3201    -0.5602    -2.4061 H       
@<TRIPOS>BOND
   1    1    2 ar
   2    1    6 ar
   3    2    3 ar
   4    2   12 1
   5    3    4 ar
   6    4    5 ar
   7    4    7 1
   8    5    6 ar
   9    5   10 1
  10    6   11 1
  11    7    8 1
  12    7   13 1
  13    8    9 1
  14    8   33 1
  15    8   34 1
  16    9   10 am
  17    9   14 2
  18   10   35 1
  19   11   36 1
  20   11   37 1
  21   12   15 1
  22   13   17 1
  23   13   38 1
  24   13   39 1
  25   15   16 1
  26   15   25 1
  27   15   40 1
  28   16   27 1
  29   16   41 1
  30   16   42 1
  31   17   18 ar
  32   17   22 ar
  33   18   19 ar
  34   18   43 1
  35   19   20 ar
  36   19   44 1
  37   20   21 ar
  38   21   22 ar
  39   21   23 1
  40   22   45 1
  41   23   24 1
  42   23   46 1
  43   23   47 1
  44   24   29 1
  45   24   32 1
  46   25   26 1
  47   25   48 1
  48   25   49 1
  49   26   27 1
  50   26   28 1
  51   26   50 1
  52   27   28 1
  53   27   51 1
  54   28   52 1
  55   28   53 1
  56   29   30 1
  57   29   54 1
  58   29   55 1
  59   30   31 1
  60   30   56 1
  61   30   57 1
  62   31   32 1
  63   31   58 1
  64   31   59 1
  65   32   60 1
  66   32   61 1

#	End of record

