#	Name: ASD01811615
#	Creating user name:	WinNT
#	Creation time:	15. 06. 2019 19:27

#	Modifying user name:	WinNT
#	Modification time:	15. 06. 2019 19:27

#	Program:	/corina/corina34_cracker 3.40 0067  02.08.2006

@<TRIPOS>MOLECULE
ASD01811615
  74   78    0    0    0
SMALL
NO_CHARGES


@<TRIPOS>ATOM
   1 C1            -1.8084     0.0021    -1.9815 C.1     
   2 C2            -1.5873     1.3871    -1.6923 C.ar    
   3 C3            -0.2897     1.8644    -1.4975 C.ar    
   4 C4            -0.0839     3.1998    -1.2193 C.ar    
   5 C5            -1.1599     4.0654    -1.1326 C.ar    
   6 C6            -2.4484     3.5991    -1.3241 C.ar    
   7 C7            -2.6680     2.2674    -1.6097 C.ar    
   8 N8            -1.9837    -1.0966    -2.2109 N.1     
   9 C9            -0.9273     5.5228    -0.8278 C.3     
  10 C10           -1.4640     6.3765    -1.9785 C.3     
  11 C11           -1.2278     7.8562    -1.6690 C.3     
  12 C12           -1.9547     8.2289    -0.3753 C.3     
  13 C13           -1.4180     7.3753     0.7754 C.3     
  14 C14           -1.6541     5.8956     0.4659 C.3     
  15 C15           -1.7221     9.6863    -0.0705 C.2     
  16 C16           -2.6927    10.4311     0.7479 C.ar    
  17 C17           -2.4323    11.7569     1.1128 C.ar    
  18 C18           -3.3421    12.4551     1.8799 C.ar    
  19 C19           -4.5145    11.8521     2.2928 C.ar    
  20 C20           -4.7878    10.5298     1.9368 C.ar    
  21 C21           -3.8786     9.8190     1.1577 C.ar    
  22 O22           -0.7354    10.2455    -0.4994 O.2     
  23 C23           -5.5014    12.6238     3.1305 C.3     
  24 C24           -1.1559    12.4228     0.6675 C.3     
  25 C25           -8.4172     7.1331     2.8654 C.3     
  26 C26           -7.5996     8.3976     2.7733 C.2     
  27 C27           -8.0069     9.6008     3.2383 C.2     
  28 C28           -9.3304     9.8452     3.9205 C.3     
  29 C29          -10.2761     8.6818     3.5980 C.3     
  30 N30           -9.5535     7.4118     3.7625 N.am    
  31 C31           -6.0440     9.8872     2.3812 C.2     
  32 N32           -6.3619     8.5662     2.2341 N.pl3   
  33 N33           -7.0455    10.4906     2.9860 N.2     
  34 C34           -9.1194     9.9299     5.4335 C.3     
  35 C35           -9.9360    11.1545     3.4107 C.3     
  36 C36           -9.9209     6.5251     4.7087 C.2     
  37 O37          -10.8582     6.7703     5.4383 O.2     
  38 C38           -9.1671     5.2290     4.8601 C.3     
  39 H39            0.5510     1.1897    -1.5641 H       
  40 H40            0.9192     3.5704    -1.0683 H       
  41 H41           -3.2837     4.2801    -1.2547 H       
  42 H42           -3.6739     1.9056    -1.7637 H       
  43 H43            0.1411     5.7032    -0.7092 H       
  44 H44           -0.9462     6.1109    -2.9001 H       
  45 H45           -2.5324     6.1961    -2.0971 H       
  46 H46           -0.1594     8.0365    -1.5504 H       
  47 H47           -1.6102     8.4643    -2.4888 H       
  48 H48           -3.0231     8.0485    -0.4939 H       
  49 H49           -0.3495     7.5556     0.8939 H       
  50 H50           -1.9358     7.6408     1.6970 H       
  51 H51           -2.7225     5.7152     0.3473 H       
  52 H52           -1.2717     5.2874     1.2857 H       
  53 H53           -3.1365    13.4779     2.1593 H       
  54 H54           -4.0876     8.7977     0.8757 H       
  55 H55           -6.2768    13.0399     2.4873 H       
  56 H56           -5.9562    11.9567     3.8629 H       
  57 H57           -4.9851    13.4328     3.6472 H       
  58 H58           -1.2771    12.7977    -0.3488 H       
  59 H59           -0.9266    13.2526     1.3360 H       
  60 H60           -0.3407    11.6997     0.6932 H       
  61 H61           -8.7839     6.8557     1.8771 H       
  62 H62           -7.8091     6.3271     3.2762 H       
  63 H63          -11.1285     8.7064     4.2768 H       
  64 H64          -10.6257     8.7711     2.5694 H       
  65 H65           -5.8110     7.8808     1.8246 H       
  66 H66           -8.4381    10.7500     5.6600 H       
  67 H67          -10.0764    10.1064     5.9246 H       
  68 H68           -8.6933     8.9935     5.7939 H       
  69 H69          -10.0902    11.0883     2.3336 H       
  70 H70          -10.8918    11.3293     3.9045 H       
  71 H71           -9.2573    11.9786     3.6306 H       
  72 H72           -8.3472     5.3658     5.5653 H       
  73 H73           -9.8415     4.4578     5.2322 H       
  74 H74           -8.7672     4.9261     3.8924 H       
@<TRIPOS>BOND
   1    1    2 1
   2    1    8 3
   3    2    3 ar
   4    2    7 ar
   5    3    4 ar
   6    3   39 1
   7    4    5 ar
   8    4   40 1
   9    5    6 ar
  10    5    9 1
  11    6    7 ar
  12    6   41 1
  13    7   42 1
  14    9   10 1
  15    9   14 1
  16    9   43 1
  17   10   11 1
  18   10   44 1
  19   10   45 1
  20   11   12 1
  21   11   46 1
  22   11   47 1
  23   12   13 1
  24   12   15 1
  25   12   48 1
  26   13   14 1
  27   13   49 1
  28   13   50 1
  29   14   51 1
  30   14   52 1
  31   15   16 1
  32   15   22 2
  33   16   17 ar
  34   16   21 ar
  35   17   18 ar
  36   17   24 1
  37   18   19 ar
  38   18   53 1
  39   19   20 ar
  40   19   23 1
  41   20   21 ar
  42   20   31 1
  43   21   54 1
  44   23   55 1
  45   23   56 1
  46   23   57 1
  47   24   58 1
  48   24   59 1
  49   24   60 1
  50   25   26 1
  51   25   30 1
  52   25   61 1
  53   25   62 1
  54   26   27 2
  55   26   32 1
  56   27   28 1
  57   27   33 1
  58   28   29 1
  59   28   34 1
  60   28   35 1
  61   29   30 1
  62   29   63 1
  63   29   64 1
  64   30   36 am
  65   31   32 1
  66   31   33 2
  67   32   65 1
  68   34   66 1
  69   34   67 1
  70   34   68 1
  71   35   69 1
  72   35   70 1
  73   35   71 1
  74   36   37 2
  75   36   38 1
  76   38   72 1
  77   38   73 1
  78   38   74 1

#	End of record

