#	Name: ASD01882088
#	Creating user name:	WinNT
#	Creation time:	15. 06. 2019 19:43

#	Modifying user name:	WinNT
#	Modification time:	15. 06. 2019 19:43

#	Program:	/corina/corina34_cracker 3.40 0067  02.08.2006

@<TRIPOS>MOLECULE
ASD01882088
  58   62    0    0    0
SMALL
NO_CHARGES


@<TRIPOS>ATOM
   1 C1            -0.0161     1.3337     0.0094 C.2     
   2 N2             0.0021    -0.0041     0.0020 N.am    
   3 C3             1.2613    -0.4841    -0.0126 C.2     
   4 C4             2.1640     0.7337    -0.0147 C.3     
   5 N5             1.2200     1.8645     0.0004 N.am    
   6 O6            -1.0354     1.9955     0.0180 O.2     
   7 O7             1.6013    -1.6477    -0.0215 O.2     
   8 C8             3.0460     0.7520     1.2354 C.3     
   9 C9             3.0220     0.7655    -1.2811 C.3     
  10 C10           -1.1986    -0.8435     0.0097 C.3     
  11 C11            1.5609     3.2893     0.0041 C.3     
  12 C12            1.6916     3.7708     1.4261 C.ar    
  13 C13            2.9179     3.7119     2.0635 C.ar    
  14 C14            3.0436     4.1515     3.3656 C.ar    
  15 C15            1.9317     4.6556     4.0386 C.ar    
  16 C16            0.6985     4.7125     3.3911 C.ar    
  17 C17            0.5860     4.2753     2.0870 C.ar    
  18 C18            2.1296     6.5463     9.4228 C.2     
  19 N19            0.8532     6.9185     9.6195 N.am    
  20 C20            0.0906     6.6569     8.3935 C.3     
  21 C21            1.0684     6.0704     7.4058 C.ar    
  22 C22            0.9454     5.6335     6.1100 C.ar    
  23 C23            2.0602     5.1290     5.4378 C.ar    
  24 C24            3.2953     5.0703     6.0844 C.ar    
  25 C25            3.4183     5.5084     7.3833 C.ar    
  26 C26            2.3036     6.0140     8.0586 C.ar    
  27 O27            3.0156     6.6401    10.2499 O.2     
  28 C28            0.3121     7.4904    10.8550 C.3     
  29 C29            0.4361     9.0146    10.8085 C.3     
  30 C30           -0.1818     9.8092    11.9607 C.3     
  31 C31            1.3387     9.6820    11.8481 C.3     
  32 H32            3.6824    -0.1329     1.2441 H       
  33 H33            3.6682     1.6470     1.2280 H       
  34 H34            2.4158     0.7550     2.1247 H       
  35 H35            2.3749     0.7780    -2.1581 H       
  36 H36            3.6443     1.6604    -1.2759 H       
  37 H37            3.6580    -0.1191    -1.3114 H       
  38 H38           -2.0851    -0.2094     0.0217 H       
  39 H39           -1.2108    -1.4683    -0.8833 H       
  40 H40           -1.1931    -1.4772     0.8965 H       
  41 H41            2.5060     3.4381    -0.5182 H       
  42 H42            0.7749     3.8522    -0.4994 H       
  43 H43            3.7786     3.3209     1.5412 H       
  44 H44            4.0014     4.1047     3.8624 H       
  45 H45           -0.1663     5.1021     3.9076 H       
  46 H46           -0.3679     4.3233     1.5828 H       
  47 H47           -0.7104     5.9457     8.5952 H       
  48 H48           -0.3229     7.5872     8.0040 H       
  49 H49           -0.0116     5.6802     5.6117 H       
  50 H50            4.1573     4.6796     5.5640 H       
  51 H51            4.3757     5.4612     7.8808 H       
  52 H52           -0.7376     7.2141    10.9540 H       
  53 H53            0.8710     7.1062    11.7083 H       
  54 H54            0.3993     9.4592     9.8139 H       
  55 H55           -0.6249    10.7766    11.7243 H       
  56 H56           -0.6767     9.2460    12.7519 H       
  57 H57            1.8441     9.0352    12.5652 H       
  58 H58            1.8960    10.5658    11.5376 H       
@<TRIPOS>BOND
   1    1    2 am
   2    1    5 am
   3    1    6 2
   4    2    3 am
   5    2   10 1
   6    3    4 1
   7    3    7 2
   8    4    5 1
   9    4    8 1
  10    4    9 1
  11    5   11 1
  12    8   32 1
  13    8   33 1
  14    8   34 1
  15    9   35 1
  16    9   36 1
  17    9   37 1
  18   10   38 1
  19   10   39 1
  20   10   40 1
  21   11   12 1
  22   11   41 1
  23   11   42 1
  24   12   13 ar
  25   12   17 ar
  26   13   14 ar
  27   13   43 1
  28   14   15 ar
  29   14   44 1
  30   15   16 ar
  31   15   23 1
  32   16   17 ar
  33   16   45 1
  34   17   46 1
  35   18   19 am
  36   18   26 1
  37   18   27 2
  38   19   20 1
  39   19   28 1
  40   20   21 1
  41   20   47 1
  42   20   48 1
  43   21   22 ar
  44   21   26 ar
  45   22   23 ar
  46   22   49 1
  47   23   24 ar
  48   24   25 ar
  49   24   50 1
  50   25   26 ar
  51   25   51 1
  52   28   29 1
  53   28   52 1
  54   28   53 1
  55   29   30 1
  56   29   31 1
  57   29   54 1
  58   30   31 1
  59   30   55 1
  60   30   56 1
  61   31   57 1
  62   31   58 1

#	End of record

