#	Name: ASD02508127
#	Creating user name:	WinNT
#	Creation time:	15. 06. 2019 20:23

#	Modifying user name:	WinNT
#	Modification time:	15. 06. 2019 20:23

#	Program:	/corina/corina34_cracker 3.40 0067  02.08.2006

@<TRIPOS>MOLECULE
ASD02508127
  36   38    0    0    0
SMALL
NO_CHARGES


@<TRIPOS>ATOM
   1 C1             0.2104     1.6294     0.0831 C.ar    
   2 C2             0.1559     0.2503     0.2115 C.ar    
   3 C3             1.4401     2.2674    -0.0773 C.ar    
   4 C4             2.6051     1.5169    -0.1073 C.ar    
   5 C5             2.5431     0.1431     0.0216 C.ar    
   6 C6             1.3221    -0.4892     0.1800 C.ar    
   7 N7            -0.7620     2.6290     0.0694 N.am    
   8 C8            -0.1285     3.8083    -0.0869 C.2     
   9 O9             1.1940     3.5968    -0.1764 O.3     
  10 S10            4.0252    -0.8089    -0.0168 S.o2    
  11 N11            3.9596    -1.7638    -1.3682 N.am    
  12 C12            3.8677    -1.1781    -2.6338 C.ar    
  13 O13           -0.6713     4.8950    -0.1426 O.2     
  14 C14           -2.2080     2.4329     0.2003 C.3     
  15 O15            5.0877     0.1110    -0.2267 O.2     
  16 O16            3.9667    -1.6875     1.0985 O.2     
  17 C17            3.1151    -1.7882    -3.6309 C.ar    
  18 C18            4.5231     0.0173    -2.8965 C.ar    
  19 C19            4.4299     0.5940    -4.1486 C.ar    
  20 C20            3.6851    -0.0176    -5.1398 C.ar    
  21 C21            3.0263    -1.2059    -4.8807 C.ar    
  22 Cl22           2.2886    -3.2799    -3.3063 Cl      
  23 C23            1.2651    -1.9886     0.3201 C.3     
  24 H24           -0.7959    -0.2447     0.3361 H       
  25 H25            3.5601     2.0058    -0.2317 H       
  26 H26            3.9849    -2.7295    -1.2814 H       
  27 H27           -2.4866     2.4761     1.2532 H       
  28 H28           -2.7319     3.2168    -0.3466 H       
  29 H29           -2.4812     1.4600    -0.2082 H       
  30 H30            5.1049     0.4962    -2.1228 H       
  31 H31            4.9393     1.5241    -4.3531 H       
  32 H32            3.6139     0.4358    -6.1174 H       
  33 H33            2.4457    -1.6812    -5.6574 H       
  34 H34            1.4333    -2.2629     1.3615 H       
  35 H35            0.2851    -2.3460     0.0039 H       
  36 H36            2.0356    -2.4414    -0.3039 H       
@<TRIPOS>BOND
   1    1    2 ar
   2    1    3 ar
   3    1    7 1
   4    2    6 ar
   5    2   24 1
   6    3    4 ar
   7    3    9 1
   8    4    5 ar
   9    4   25 1
  10    5    6 ar
  11    5   10 1
  12    6   23 1
  13    7    8 am
  14    7   14 1
  15    8    9 1
  16    8   13 2
  17   10   11 am
  18   10   15 2
  19   10   16 2
  20   11   12 1
  21   11   26 1
  22   12   17 ar
  23   12   18 ar
  24   14   27 1
  25   14   28 1
  26   14   29 1
  27   17   22 1
  28   17   21 ar
  29   18   19 ar
  30   18   30 1
  31   19   20 ar
  32   19   31 1
  33   20   21 ar
  34   20   32 1
  35   21   33 1
  36   23   34 1
  37   23   35 1
  38   23   36 1

#	End of record

