#	Name: ASD01230155
#	Creating user name:	WinNT
#	Creation time:	15. 06. 2019 19:11

#	Modifying user name:	WinNT
#	Modification time:	15. 06. 2019 19:11

#	Program:	/corina/corina34_cracker 3.40 0067  02.08.2006

@<TRIPOS>MOLECULE
ASD01230155
  37   40    0    0    0
SMALL
NO_CHARGES


@<TRIPOS>ATOM
   1 S1            -0.0204     1.6504     0.0111 S.o2    
   2 N2             0.0021    -0.0041     0.0020 N.am    
   3 C3             1.0222    -0.6870    -0.4552 C.2     
   4 N4             2.1685    -0.1523    -0.9703 N.pl3   
   5 C5             2.3936     1.2849    -1.1466 C.3     
   6 C6             1.7502     2.0748    -0.0035 C.3     
   7 C7             0.8939    -2.1607    -0.3944 C.2     
   8 C8             1.9481    -2.9450    -0.8234 C.2     
   9 C9             3.1052    -2.3208    -1.3053 C.2     
  10 C10            3.1910    -0.9800    -1.3637 C.2     
  11 O11           -1.5575    -2.7020    -0.4535 O.3     
  12 C12           -0.3392    -2.7822     0.1165 C.2     
  13 C13           -0.4435    -3.5379     1.2482 C.2     
  14 C14           -1.7870    -3.9265     1.3581 C.2     
  15 C15           -2.4443    -3.3923     0.2907 C.2     
  16 C16           -3.8835    -3.5434    -0.0007 C.ar    
  17 C17           -4.4370    -2.9420    -1.1336 C.ar    
  18 C18           -5.7825    -3.0873    -1.3997 C.ar    
  19 C19           -6.5839    -3.8263    -0.5472 C.ar    
  20 C20           -6.0424    -4.4247     0.5769 C.ar    
  21 C21           -4.6973    -4.2931     0.8520 C.ar    
  22 O22           -0.6346     2.0065    -1.2198 O.2     
  23 O23           -0.6109     1.9932     1.2573 O.2     
  24 H24            3.4656     1.4817    -1.1606 H       
  25 H25            1.9579     1.6035    -2.0935 H       
  26 H26            1.8745     3.1441    -0.1748 H       
  27 H27            2.2073     1.7940     0.9453 H       
  28 H28            1.8806    -4.0223    -0.7871 H       
  29 H29            3.9391    -2.9234    -1.6338 H       
  30 H30            4.1022    -0.5356    -1.7360 H       
  31 H31            0.3561    -3.7893     1.9293 H       
  32 H32           -2.2184    -4.5339     2.1400 H       
  33 H33           -3.8128    -2.3644    -1.7994 H       
  34 H34           -6.2117    -2.6229    -2.2752 H       
  35 H35           -7.6370    -3.9361    -0.7601 H       
  36 H36           -6.6737    -5.0000     1.2379 H       
  37 H37           -4.2751    -4.7644     1.7273 H       
@<TRIPOS>BOND
   1    1    2 am
   2    1    6 1
   3    1   22 2
   4    1   23 2
   5    2    3 2
   6    3    4 1
   7    3    7 1
   8    4    5 1
   9    4   10 1
  10    5    6 1
  11    5   24 1
  12    5   25 1
  13    6   26 1
  14    6   27 1
  15    7    8 2
  16    7   12 1
  17    8    9 1
  18    8   28 1
  19    9   10 2
  20    9   29 1
  21   10   30 1
  22   11   12 1
  23   11   15 1
  24   12   13 2
  25   13   14 1
  26   13   31 1
  27   14   15 2
  28   14   32 1
  29   15   16 1
  30   16   17 ar
  31   16   21 ar
  32   17   18 ar
  33   17   33 1
  34   18   19 ar
  35   18   34 1
  36   19   20 ar
  37   19   35 1
  38   20   21 ar
  39   20   36 1
  40   21   37 1

#	End of record

