#	Name: ASD01028586
#	Creating user name:	WinNT
#	Creation time:	15. 06. 2019 18:57

#	Modifying user name:	WinNT
#	Modification time:	15. 06. 2019 18:57

#	Program:	/corina/corina34_cracker 3.40 0067  02.08.2006

@<TRIPOS>MOLECULE
ASD01028586
  43   46    0    0    0
SMALL
NO_CHARGES


@<TRIPOS>ATOM
   1 N1            -0.0169     1.3920     0.0097 N.2     
   2 N2             0.0021    -0.0041     0.0020 N.pl3   
   3 C3             1.0992     2.0716     0.0027 C.2     
   4 C4             2.3404     1.4215    -0.0131 C.2     
   5 C5             2.4005     0.0612    -0.0210 C.2     
   6 C6             1.2021    -0.6751    -0.0130 C.2     
   7 N7             0.9183    -1.9672    -0.0171 N.2     
   8 N8            -0.3599    -2.1214    -0.0052 N.2     
   9 C9            -0.9566    -0.9555     0.0056 C.2     
  10 C10           -2.4447    -0.7183     0.0220 C.3     
  11 N11           -2.9127    -0.6476     1.4084 N.pl3   
  12 C12           -4.2570    -0.4340     1.6767 C.ar    
  13 C13           -5.1745    -0.2849     0.6498 C.ar    
  14 C14           -6.5139    -0.0721     0.9474 C.ar    
  15 N15           -6.9441    -0.0066     2.1861 N.ar    
  16 C16           -6.1135    -0.1419     3.2252 C.ar    
  17 C17           -4.7337    -0.3678     3.0093 C.ar    
  18 C18           -6.5888    -0.0699     4.5478 C.ar    
  19 C19           -5.6876    -0.2168     5.5692 C.ar    
  20 C20           -4.3361    -0.4318     5.2797 C.ar    
  21 N21           -3.9039    -0.5042     4.0446 N.ar    
  22 O22           -6.1056    -0.1534     6.8603 O.3     
  23 C23            1.0507     3.5778     0.0112 C.3     
  24 O24            1.6974     4.0819    -1.1591 O.3     
  25 C25           -5.1105    -0.3153     7.8731 C.3     
  26 C26           -0.4074     4.0411     0.0277 C.3     
  27 H27            3.2518     2.0008    -0.0194 H       
  28 H28            3.3544    -0.4451    -0.0335 H       
  29 H29           -2.6687     0.2201    -0.4854 H       
  30 H30           -2.9489    -1.5377    -0.4904 H       
  31 H31           -2.2827    -0.7501     2.1388 H       
  32 H32           -4.8491    -0.3335    -0.3788 H       
  33 H33           -7.2204     0.0428     0.1387 H       
  34 H34           -7.6361     0.0971     4.7523 H       
  35 H35           -3.6339    -0.5463     6.0922 H       
  36 H36            1.5610     3.9528     0.8984 H       
  37 H37            1.2954     3.7882    -1.9880 H       
  38 H38           -4.6383    -1.2918     7.7657 H       
  39 H39           -4.3571     0.4658     7.7704 H       
  40 H40           -5.5769    -0.2433     8.8556 H       
  41 H41           -0.9008     3.6566     0.9203 H       
  42 H42           -0.4425     5.1305     0.0338 H       
  43 H43           -0.9178     3.6661    -0.8595 H       
@<TRIPOS>BOND
   1    1    2 1
   2    1    3 2
   3    2    6 1
   4    2    9 1
   5    3    4 1
   6    3   23 1
   7    4    5 2
   8    4   27 1
   9    5    6 1
  10    5   28 1
  11    6    7 2
  12    7    8 1
  13    8    9 2
  14    9   10 1
  15   10   11 1
  16   10   29 1
  17   10   30 1
  18   11   12 1
  19   11   31 1
  20   12   13 ar
  21   12   17 ar
  22   13   14 ar
  23   13   32 1
  24   14   15 ar
  25   14   33 1
  26   15   16 ar
  27   16   17 ar
  28   16   18 ar
  29   17   21 ar
  30   18   19 ar
  31   18   34 1
  32   19   20 ar
  33   19   22 1
  34   20   21 ar
  35   20   35 1
  36   22   25 1
  37   23   26 1
  38   23   24 1
  39   23   36 1
  40   24   37 1
  41   25   38 1
  42   25   39 1
  43   25   40 1
  44   26   41 1
  45   26   42 1
  46   26   43 1

#	End of record

