#	Name: ASD01918460
#	Creating user name:	WinNT
#	Creation time:	15. 06. 2019 20:11

#	Modifying user name:	WinNT
#	Modification time:	15. 06. 2019 20:11

#	Program:	/corina/corina34_cracker 3.40 0067  02.08.2006

@<TRIPOS>MOLECULE
ASD01918460
  40   43    0    0    0
SMALL
NO_CHARGES


@<TRIPOS>ATOM
   1 F1             0.0021    -0.0041     0.0020 F       
   2 C2            -0.0162     1.3468     0.0094 C.ar    
   3 C3            -1.2246     2.0227     0.0304 C.ar    
   4 C4            -1.2466     3.4052     0.0380 C.ar    
   5 C5            -0.0633     4.1177     0.0248 C.ar    
   6 C6             1.1516     3.4454     0.0043 C.ar    
   7 N7             2.3515     4.1658    -0.0087 N.am    
   8 C8             2.9335     4.5398    -1.2922 C.3     
   9 C9             3.5061     5.9583    -1.2841 C.3     
  10 C10            4.3182     6.1481    -0.0297 C.2     
  11 N11            5.3616     6.9225     0.2205 N.2     
  12 C12            5.7230     6.7539     1.4700 C.2     
  13 C13            6.8698     7.4576     2.1488 C.3     
  14 O14            6.4018     8.6727     2.7375 O.3     
  15 C15            7.3173     9.4329     3.3938 C.ar    
  16 C16            8.6400     9.0207     3.4648 C.ar    
  17 C17            9.5688     9.7956     4.1322 C.ar    
  18 C18            9.1810    10.9807     4.7295 C.ar    
  19 C19            7.8631    11.3934     4.6606 C.ar    
  20 C20            6.9318    10.6253     3.9891 C.ar    
  21 O21            4.9098     5.8565     2.0489 O.3     
  22 C22            4.0294     5.4609     1.1247 C.2     
  23 C23            2.9275     4.4953     1.1703 C.2     
  24 O24            2.5508     4.0099     2.2208 O.2     
  25 C25            1.1737     2.0556     0.0019 C.ar    
  26 F26            2.3535     1.3974    -0.0134 F       
  27 H27           -2.1517     1.4689     0.0404 H       
  28 H28           -2.1909     3.9291     0.0540 H       
  29 H29           -0.0830     5.1975     0.0301 H       
  30 H30            3.7319     3.8386    -1.5351 H       
  31 H31            2.1636     4.4746    -2.0609 H       
  32 H32            4.1436     6.0997    -2.1569 H       
  33 H33            2.6907     6.6813    -1.3042 H       
  34 H34            7.2830     6.8134     2.9250 H       
  35 H35            7.6431     7.6838     1.4147 H       
  36 H36            8.9433     8.0948     2.9991 H       
  37 H37           10.5987     9.4751     4.1878 H       
  38 H38            9.9085    11.5849     5.2511 H       
  39 H39            7.5626    12.3194     5.1282 H       
  40 H40            5.9034    10.9503     3.9317 H       
@<TRIPOS>BOND
   1    1    2 1
   2    2   25 ar
   3    2    3 ar
   4    3    4 ar
   5    3   27 1
   6    4    5 ar
   7    4   28 1
   8    5    6 ar
   9    5   29 1
  10    6    7 1
  11    6   25 ar
  12    7   23 am
  13    7    8 1
  14    8    9 1
  15    8   30 1
  16    8   31 1
  17    9   10 1
  18    9   32 1
  19    9   33 1
  20   10   22 2
  21   10   11 1
  22   11   12 2
  23   12   13 1
  24   12   21 1
  25   13   14 1
  26   13   34 1
  27   13   35 1
  28   14   15 1
  29   15   20 ar
  30   15   16 ar
  31   16   17 ar
  32   16   36 1
  33   17   18 ar
  34   17   37 1
  35   18   19 ar
  36   18   38 1
  37   19   20 ar
  38   19   39 1
  39   20   40 1
  40   21   22 1
  41   22   23 1
  42   23   24 2
  43   25   26 1

#	End of record

