#	Name: ASD01820011
#	Creating user name:	WinNT
#	Creation time:	15. 06. 2019 19:36

#	Modifying user name:	WinNT
#	Modification time:	15. 06. 2019 19:36

#	Program:	/corina/corina34_cracker 3.40 0067  02.08.2006

@<TRIPOS>MOLECULE
ASD01820011
  87   91    0    0    0
SMALL
NO_CHARGES


@<TRIPOS>ATOM
   1 C1            -2.3803     4.7970    -0.6255 C.ar    
   2 C2            -2.6187     3.3106    -0.5642 C.3     
   3 C3            -1.4754     2.5802    -1.2696 C.3     
   4 C4            -0.1527     3.1090    -0.7841 C.2     
   5 N5            -0.0040     4.4094    -0.4717 N.am    
   6 C6            -1.0838     5.2915    -0.5768 C.ar    
   7 C7             2.1185     5.3626    -1.2251 C.3     
   8 C8             1.2980     4.9043    -0.0178 C.3     
   9 O9             0.7902     2.3542    -0.6729 O.2     
  10 C10            3.4783     5.8794    -0.7511 C.3     
  11 N11            4.2661     6.3195    -1.9103 N.3     
  12 C12            5.4743     7.0369    -1.4838 C.3     
  13 C13           -0.8636     6.6614    -0.6321 C.ar    
  14 C14           -1.9346     7.5270    -0.7362 C.ar    
  15 C15           -3.2248     7.0311    -0.7848 C.ar    
  16 C16           -3.4469     5.6672    -0.7356 C.ar    
  17 C17            3.4538     7.1401    -2.8177 C.3     
  18 C18            4.2596     7.4578    -4.0794 C.3     
  19 C19            5.5363     8.2073    -3.6884 C.3     
  20 C20            6.3404     7.3516    -2.7056 C.3     
  21 O21           13.6632    12.6428    -7.2268 O.3     
  22 C22           14.5175    12.9726    -8.2309 C.2     
  23 C23           15.6637    13.7450    -8.0499 C.2     
  24 C24           16.0597    14.2832    -6.7320 C.2     
  25 C25           17.0886    15.1001    -6.6718 C.2     
  26 C26           15.2648    13.8767    -5.5245 C.3     
  27 N27           16.0209    14.1622    -4.2986 N.3     
  28 C28           16.4979    15.5549    -4.3064 C.3     
  29 C29           17.5767    15.6968    -5.3812 C.3     
  30 C30           15.2098    13.8902    -3.1044 C.3     
  31 N31           16.3630    13.9569    -9.1364 N.2     
  32 S32           15.6610    13.2476   -10.3380 S.3     
  33 N33           14.3583    12.5955    -9.4745 N.2     
  34 C34            6.3758     8.4743    -4.9394 C.3     
  35 C35            7.5881     9.3303    -4.5669 C.3     
  36 C36            8.4275     9.5973    -5.8178 C.3     
  37 C37            9.6398    10.4533    -5.4453 C.3     
  38 C38           10.4793    10.7203    -6.6963 C.3     
  39 C39           11.6915    11.5763    -6.3238 C.3     
  40 C40           12.5310    11.8433    -7.5747 C.3     
  41 H41           -2.6648     2.9928     0.4774 H       
  42 H42           -3.5609     3.0732    -1.0582 H       
  43 H43           -1.5399     1.5136    -1.0544 H       
  44 H44           -1.5550     2.7366    -2.3454 H       
  45 H45            2.2656     4.5229    -1.9044 H       
  46 H46            1.5872     6.1607    -1.7437 H       
  47 H47            1.1509     5.7439     0.6614 H       
  48 H48            1.8294     4.1062     0.5007 H       
  49 H49            3.3312     6.7191    -0.0719 H       
  50 H50            4.0097     5.0814    -0.2326 H       
  51 H51            5.1897     7.9667    -0.9912 H       
  52 H52            6.0391     6.4158    -0.7886 H       
  53 H53            0.1436     7.0493    -0.5934 H       
  54 H54           -1.7645     8.5927    -0.7795 H       
  55 H55           -4.0604     7.7105    -0.8658 H       
  56 H56           -4.4554     5.2827    -0.7739 H       
  57 H57            2.5511     6.5939    -3.0913 H       
  58 H58            3.1787     8.0693    -2.3188 H       
  59 H59            4.5232     6.5295    -4.5862 H       
  60 H60            3.6620     8.0799    -4.7457 H       
  61 H61            5.2730     9.1543    -3.2174 H       
  62 H62            7.2295     7.8978    -2.3905 H       
  63 H63            6.6368     6.4216    -3.1909 H       
  64 H64           17.6041    15.3522    -7.5867 H       
  65 H65           14.3262    14.4307    -5.5070 H       
  66 H66           15.0503    12.8093    -5.5761 H       
  67 H67           15.6687    16.2247    -4.5341 H       
  68 H68           16.9163    15.8041    -3.3312 H       
  69 H69           18.4784    15.1749    -5.0611 H       
  70 H70           17.8032    16.7525    -5.5305 H       
  71 H71           14.9149    12.8408    -3.0968 H       
  72 H72           15.7939    14.1099    -2.2107 H       
  73 H73           14.3189    14.5179    -3.1197 H       
  74 H74            6.7149     7.5270    -5.3584 H       
  75 H75            5.7712     9.0021    -5.6768 H       
  76 H76            7.2489    10.2776    -4.1478 H       
  77 H77            8.1927     8.8024    -3.8294 H       
  78 H78            8.7667     8.6500    -6.2369 H       
  79 H79            7.8229    10.1251    -6.5553 H       
  80 H80            9.3007    11.4006    -5.0263 H       
  81 H81           10.2444     9.9254    -4.7079 H       
  82 H82           10.8184     9.7730    -7.1153 H       
  83 H83            9.8746    11.2482    -7.4338 H       
  84 H84           11.3524    12.5236    -5.9047 H       
  85 H85           12.2962    11.0484    -5.5863 H       
  86 H86           11.9263    12.3712    -8.3122 H       
  87 H87           12.8701    10.8960    -7.9938 H       
@<TRIPOS>BOND
   1    1    2 1
   2    1    6 ar
   3    1   16 ar
   4    2    3 1
   5    2   41 1
   6    2   42 1
   7    3    4 1
   8    3   43 1
   9    3   44 1
  10    4    5 am
  11    4    9 2
  12    5    6 1
  13    5    8 1
  14    6   13 ar
  15    7    8 1
  16    7   10 1
  17    7   45 1
  18    7   46 1
  19    8   47 1
  20    8   48 1
  21   10   11 1
  22   10   49 1
  23   10   50 1
  24   11   12 1
  25   11   17 1
  26   12   20 1
  27   12   51 1
  28   12   52 1
  29   13   14 ar
  30   13   53 1
  31   14   15 ar
  32   14   54 1
  33   15   16 ar
  34   15   55 1
  35   16   56 1
  36   17   18 1
  37   17   57 1
  38   17   58 1
  39   18   19 1
  40   18   59 1
  41   18   60 1
  42   19   34 1
  43   19   20 1
  44   19   61 1
  45   20   62 1
  46   20   63 1
  47   21   40 1
  48   21   22 1
  49   22   23 1
  50   22   33 2
  51   23   24 1
  52   23   31 2
  53   24   25 2
  54   24   26 1
  55   25   29 1
  56   25   64 1
  57   26   27 1
  58   26   65 1
  59   26   66 1
  60   27   28 1
  61   27   30 1
  62   28   29 1
  63   28   67 1
  64   28   68 1
  65   29   69 1
  66   29   70 1
  67   30   71 1
  68   30   72 1
  69   30   73 1
  70   31   32 1
  71   32   33 1
  72   34   35 1
  73   34   74 1
  74   34   75 1
  75   35   36 1
  76   35   76 1
  77   35   77 1
  78   36   37 1
  79   36   78 1
  80   36   79 1
  81   37   38 1
  82   37   80 1
  83   37   81 1
  84   38   39 1
  85   38   82 1
  86   38   83 1
  87   39   40 1
  88   39   84 1
  89   39   85 1
  90   40   86 1
  91   40   87 1

#	End of record

