#	Name: ASD01914735
#	Creating user name:	WinNT
#	Creation time:	15. 06. 2019 20:04

#	Modifying user name:	WinNT
#	Modification time:	15. 06. 2019 20:04

#	Program:	/corina/corina34_cracker 3.40 0067  02.08.2006

@<TRIPOS>MOLECULE
ASD01914735
  39   42    0    0    0
SMALL
NO_CHARGES


@<TRIPOS>ATOM
   1 N1            -0.0166     1.3705     0.0096 N.am    
   2 C2             0.0021    -0.0041     0.0020 C.2     
   3 C3            -1.2736    -0.7246     0.0099 C.2     
   4 C4            -2.4136    -0.0072     0.0243 C.2     
   5 N5            -2.3602     1.3664     0.0312 N.am    
   6 C6            -1.1892     2.0260     0.0292 C.2     
   7 C7             1.2928     1.7853    -0.0007 C.2     
   8 C8             2.0584     0.6765    -0.0140 C.2     
   9 N9             1.2576    -0.3978    -0.0121 N.2     
  10 C10            3.5651     0.6493    -0.0292 C.3     
  11 O11           -1.1912     3.2419     0.0360 O.2     
  12 C12           -3.6103     2.1300     0.0468 C.3     
  13 O13            4.0658     1.9877    -0.0276 O.3     
  14 C14            5.4160     2.1414    -0.0404 C.ar    
  15 C15            5.9706     3.4130    -0.0396 C.ar    
  16 C16            6.2421     1.0269    -0.0485 C.ar    
  17 C17            7.6143     1.1858    -0.0610 C.ar    
  18 C18            8.1645     2.4542    -0.0650 C.ar    
  19 C19            7.3434     3.5666    -0.0521 C.ar    
  20 C20           -4.0322     2.3880     1.4947 C.3     
  21 C21           -5.2573     3.2749     1.7261 C.3     
  22 C22           -5.3478     1.7670     1.9685 C.3     
  23 H23           -1.2993    -1.8043     0.0040 H       
  24 H24           -3.3690    -0.5109     0.0300 H       
  25 H25            1.6427     2.8070     0.0011 H       
  26 H26            3.9280     0.1245     0.8545 H       
  27 H27            3.9101     0.1334    -0.9253 H       
  28 H28           -3.4612     3.0816    -0.4633 H       
  29 H29           -4.3890     1.5626    -0.4629 H       
  30 H30            5.3296     4.2822    -0.0295 H       
  31 H31            5.8128     0.0359    -0.0446 H       
  32 H32            8.2578     0.3185    -0.0673 H       
  33 H33            9.2376     2.5764    -0.0745 H       
  34 H34            7.7756     4.5563    -0.0556 H       
  35 H35           -3.2184     2.4556     2.2166 H       
  36 H36           -5.2495     3.9257     2.6005 H       
  37 H37           -5.7626     3.6746     0.8469 H       
  38 H38           -5.9127     1.1746     1.2488 H       
  39 H39           -5.3996     1.4256     3.0024 H       
@<TRIPOS>BOND
   1    1    2 1
   2    1    7 1
   3    1    6 am
   4    2    3 1
   5    2    9 2
   6    3    4 2
   7    3   23 1
   8    4    5 1
   9    4   24 1
  10    5    6 am
  11    5   12 1
  12    6   11 2
  13    7    8 2
  14    7   25 1
  15    8    9 1
  16    8   10 1
  17   10   13 1
  18   10   26 1
  19   10   27 1
  20   12   20 1
  21   12   28 1
  22   12   29 1
  23   13   14 1
  24   14   15 ar
  25   14   16 ar
  26   15   19 ar
  27   15   30 1
  28   16   17 ar
  29   16   31 1
  30   17   18 ar
  31   17   32 1
  32   18   19 ar
  33   18   33 1
  34   19   34 1
  35   20   21 1
  36   20   22 1
  37   20   35 1
  38   21   22 1
  39   21   36 1
  40   21   37 1
  41   22   38 1
  42   22   39 1

#	End of record

