#	Name: ASD09740008
#	Creating user name:	WinNT
#	Creation time:	15. 06. 2019 21:22

#	Modifying user name:	WinNT
#	Modification time:	15. 06. 2019 21:22

#	Program:	/corina/corina34_cracker 3.40 0067  02.08.2006

@<TRIPOS>MOLECULE
ASD09740008
  29   32    0    0    0
SMALL
NO_CHARGES


@<TRIPOS>ATOM
   1 N1            -0.0144     1.2085     0.0087 N.2     
   2 O2             0.0021    -0.0041     0.0020 O.3     
   3 C3             1.2056     1.6802    -0.0004 C.2     
   4 N4             2.0459     0.6248    -0.0141 N.2     
   5 C5             1.2702    -0.4439    -0.0125 C.2     
   6 C6             1.7131    -1.8527    -0.0242 C.ar    
   7 C7             0.7702    -2.8829    -0.0208 C.ar    
   8 C8             3.0757    -2.1581    -0.0447 C.ar    
   9 C9             3.4871    -3.4734    -0.0567 C.ar    
  10 C10            2.5511    -4.4983    -0.0479 C.ar    
  11 C11            1.1885    -4.1999    -0.0323 C.ar    
  12 C12            1.5942     3.1136     0.0028 C.ar    
  13 C13            0.6251     4.1196     0.0172 C.ar    
  14 C14            1.0297     5.4394     0.0197 C.ar    
  15 N15            2.3103     5.7548     0.0083 N.ar    
  16 C16            3.2562     4.8359    -0.0055 C.ar    
  17 C17            2.9388     3.4924    -0.0026 C.ar    
  18 O18            0.4862    -5.3708    -0.0260 O.3     
  19 C19            1.4294    -6.3820     0.3749 C.3     
  20 O20            2.6992    -5.8545    -0.0563 O.3     
  21 H21           -0.2845    -2.6506    -0.0088 H       
  22 H22            3.8070    -1.3634    -0.0516 H       
  23 H23            4.5413    -3.7075    -0.0732 H       
  24 H24           -0.4253     3.8685     0.0259 H       
  25 H25            0.2878     6.2242     0.0308 H       
  26 H26            4.2929     5.1384    -0.0148 H       
  27 H27            3.7185     2.7451    -0.0136 H       
  28 H28            1.4133    -6.5132     1.4569 H       
  29 H29            1.2175    -7.3248    -0.1293 H       
@<TRIPOS>BOND
   1    1    2 1
   2    1    3 2
   3    2    5 1
   4    3    4 1
   5    3   12 1
   6    4    5 2
   7    5    6 1
   8    6    7 ar
   9    6    8 ar
  10    7   11 ar
  11    7   21 1
  12    8    9 ar
  13    8   22 1
  14    9   10 ar
  15    9   23 1
  16   10   11 ar
  17   10   20 1
  18   11   18 1
  19   12   13 ar
  20   12   17 ar
  21   13   14 ar
  22   13   24 1
  23   14   15 ar
  24   14   25 1
  25   15   16 ar
  26   16   17 ar
  27   16   26 1
  28   17   27 1
  29   18   19 1
  30   19   20 1
  31   19   28 1
  32   19   29 1

#	End of record

