#	Name: ASD03091087
#	Creating user name:	WinNT
#	Creation time:	15. 06. 2019 20:30

#	Modifying user name:	WinNT
#	Modification time:	15. 06. 2019 20:30

#	Program:	/corina/corina34_cracker 3.40 0067  02.08.2006

@<TRIPOS>MOLECULE
ASD03091087
  67   69    0    0    0
SMALL
NO_CHARGES


@<TRIPOS>ATOM
   1 N1             1.2343     1.8052     0.3654 N.am    
   2 C2             0.8315     0.4051     0.1844 C.3     
   3 C3             2.0957    -0.4670     0.2845 C.3     
   4 C4             3.1216     0.4643     1.0066 C.3     
   5 C5             2.6980     1.8630     0.5085 C.3     
   6 N6             2.2658    -1.0860     2.6317 N.3     
   7 C7             1.8525    -1.5889     1.3106 C.3     
   8 C8             2.7057     0.3161     2.4867 C.3     
   9 C9             0.4011     2.8643     0.3906 C.2     
  10 O10           -0.7953     2.6995     0.2564 O.2     
  11 O11            0.8944     4.1049     0.5644 O.3     
  12 C12            1.2232    -1.1906     3.5558 C.ar    
  13 C13            1.0204    -0.1852     4.4892 C.ar    
  14 C14           -0.0217    -0.2945     5.4094 C.ar    
  15 C15           -0.8538    -1.4154     5.3848 C.ar    
  16 C16           -0.6438    -2.4103     4.4522 C.ar    
  17 C17            0.3857    -2.2995     3.5361 C.ar    
  18 N18           -1.9611    -1.5366     6.3597 N.pl3   
  19 O19           -2.0816    -2.5521     7.0212 O.2     
  20 O20           -2.7517    -0.6207     6.5002 O.2     
  21 C21           -0.2444     0.7729     6.4081 C.2     
  22 N22            0.4741     1.9116     6.3490 N.am    
  23 O23           -1.0755     0.6233     7.2824 O.2     
  24 C24            0.2534     2.9691     7.3386 C.3     
  25 C25            1.1760     4.1257     7.0518 C.2     
  26 O26            1.9423     4.0720     6.1133 O.2     
  27 N27            1.1494     5.2199     7.8384 N.am    
  28 C28            2.0462     6.3443     7.5596 C.3     
  29 C29            1.4426     7.6308     8.1267 C.3     
  30 C30            3.4052     6.0870     8.2138 C.3     
  31 C31           -0.0613     5.1980     0.5810 C.3     
  32 C32           -1.0569     4.9877     1.7235 C.3     
  33 C33            0.6800     6.5204     0.7874 C.3     
  34 C34           -0.8139     5.2376    -0.7505 C.3     
  35 H35            0.1245     0.1209     0.9639 H       
  36 H36            0.3717     0.2773    -0.7956 H       
  37 H37            2.4453    -0.8263    -0.6834 H       
  38 H38            4.1646     0.2220     0.8025 H       
  39 H39            3.1626     2.0769    -0.4540 H       
  40 H40            2.9755     2.6231     1.2388 H       
  41 H41            0.7943    -1.8494     1.3291 H       
  42 H42            2.4448    -2.4651     1.0471 H       
  43 H43            3.5559     0.5144     3.1394 H       
  44 H44            1.8849     0.9951     2.7179 H       
  45 H45            1.6675     0.6794     4.5036 H       
  46 H46           -1.2886    -3.2765     4.4349 H       
  47 H47            0.5424    -3.0794     2.8056 H       
  48 H48            1.1373     2.0309     5.6513 H       
  49 H49           -0.7813     3.3075     7.2841 H       
  50 H50            0.4567     2.5810     8.3366 H       
  51 H51            0.5365     5.2629     8.5890 H       
  52 H52            2.1753     6.4476     6.4822 H       
  53 H53            1.3135     7.5274     9.2041 H       
  54 H54            2.1099     8.4674     7.9193 H       
  55 H55            0.4745     7.8141     7.6607 H       
  56 H56            4.0725     6.9236     8.0064 H       
  57 H57            3.2761     5.9837     9.2912 H       
  58 H58            3.8352     5.1705     7.8098 H       
  59 H59           -0.5207     4.9594     2.6721 H       
  60 H60           -1.7743     5.8082     1.7359 H       
  61 H61           -1.5850     4.0456     1.5764 H       
  62 H62            1.3893     6.6702    -0.0266 H       
  63 H63           -0.0374     7.3410     0.7998 H       
  64 H64            1.2162     6.4922     1.7360 H       
  65 H65           -1.3419     4.2955    -0.8976 H       
  66 H66           -1.5313     6.0582    -0.7381 H       
  67 H67           -0.1046     5.3875    -1.5645 H       
@<TRIPOS>BOND
   1    1    2 1
   2    1    5 1
   3    1    9 am
   4    2    3 1
   5    2   35 1
   6    2   36 1
   7    3    4 1
   8    3    7 1
   9    3   37 1
  10    4    5 1
  11    4    8 1
  12    4   38 1
  13    5   39 1
  14    5   40 1
  15    6    7 1
  16    6    8 1
  17    6   12 1
  18    7   41 1
  19    7   42 1
  20    8   43 1
  21    8   44 1
  22    9   10 2
  23    9   11 1
  24   11   31 1
  25   12   13 ar
  26   12   17 ar
  27   13   14 ar
  28   13   45 1
  29   14   15 ar
  30   14   21 1
  31   15   16 ar
  32   15   18 1
  33   16   17 ar
  34   16   46 1
  35   17   47 1
  36   18   19 2
  37   18   20 2
  38   21   22 am
  39   21   23 2
  40   22   24 1
  41   22   48 1
  42   24   25 1
  43   24   49 1
  44   24   50 1
  45   25   26 2
  46   25   27 am
  47   27   28 1
  48   27   51 1
  49   28   29 1
  50   28   30 1
  51   28   52 1
  52   29   53 1
  53   29   54 1
  54   29   55 1
  55   30   56 1
  56   30   57 1
  57   30   58 1
  58   31   32 1
  59   31   34 1
  60   31   33 1
  61   32   59 1
  62   32   60 1
  63   32   61 1
  64   33   62 1
  65   33   63 1
  66   33   64 1
  67   34   65 1
  68   34   66 1
  69   34   67 1

#	End of record

