#	Name: ASD01208496
#	Creating user name:	WinNT
#	Creation time:	15. 06. 2019 19:09

#	Modifying user name:	WinNT
#	Modification time:	15. 06. 2019 19:09

#	Program:	/corina/corina34_cracker 3.40 0067  02.08.2006

@<TRIPOS>MOLECULE
ASD01208496
  26   27    0    0    0
SMALL
NO_CHARGES


@<TRIPOS>ATOM
   1 N1            -0.0614     1.4569     0.2696 N.am    
   2 C2            -0.0671    -0.0132     0.3118 C.3     
   3 C3             1.0983     0.0648     1.3078 C.3     
   4 C4             1.3677     1.4068     0.6132 C.3     
   5 C5            -0.9662     2.4241     0.0201 C.2     
   6 C6            -0.5798     3.8450     0.1374 C.ar    
   7 C7            -1.5501     4.8453     0.0432 C.ar    
   8 C8            -1.1841     6.1694     0.1533 C.ar    
   9 C9             0.1448     6.5094     0.3567 C.ar    
  10 C10            1.1120     5.5207     0.4504 C.ar    
  11 C11            0.7560     4.1928     0.3484 C.ar    
  12 O12           -2.1003     2.1271    -0.3015 O.2     
  13 C13           -2.2299     7.2497     0.0519 C.3     
  14 F14           -3.4849     6.6661    -0.1521 F       
  15 F15           -2.2485     7.9934     1.2368 F       
  16 F16           -1.9272     8.0924    -1.0229 F       
  17 F17            0.4983     7.8090     0.4635 F       
  18 H18           -0.9776    -0.4316     0.7408 H       
  19 H19            0.2034    -0.4757    -0.6375 H       
  20 H20            0.7905     0.1546     2.3495 H       
  21 H21            1.8735    -0.6846     1.1482 H       
  22 H22            2.0204     1.3226    -0.2558 H       
  23 H23            1.6773     2.1959     1.2985 H       
  24 H24           -2.5852     4.5815    -0.1159 H       
  25 H25            2.1456     5.7910     0.6085 H       
  26 H26            1.5095     3.4230     0.4267 H       
@<TRIPOS>BOND
   1    1    2 1
   2    1    4 1
   3    1    5 am
   4    2    3 1
   5    2   18 1
   6    2   19 1
   7    3    4 1
   8    3   20 1
   9    3   21 1
  10    4   22 1
  11    4   23 1
  12    5    6 1
  13    5   12 2
  14    6    7 ar
  15    6   11 ar
  16    7    8 ar
  17    7   24 1
  18    8    9 ar
  19    8   13 1
  20    9   10 ar
  21    9   17 1
  22   10   11 ar
  23   10   25 1
  24   11   26 1
  25   13   14 1
  26   13   15 1
  27   13   16 1

#	End of record

