#	Name: ASD01810877
#	Creating user name:	WinNT
#	Creation time:	15. 06. 2019 19:25

#	Modifying user name:	WinNT
#	Modification time:	15. 06. 2019 19:25

#	Program:	/corina/corina34_cracker 3.40 0067  02.08.2006

@<TRIPOS>MOLECULE
ASD01810877
  62   66    0    0    0
SMALL
NO_CHARGES


@<TRIPOS>ATOM
   1 C1             0.2624    14.7775    -5.5694 C.1     
   2 C2             0.1389    13.7146    -4.6178 C.ar    
   3 C3            -0.0509    12.4017    -5.0535 C.ar    
   4 C4            -0.1691    11.3826    -4.1313 C.ar    
   5 C5            -0.1004    11.6591    -2.7774 C.ar    
   6 C6             0.0870    12.9578    -2.3386 C.ar    
   7 C7             0.2135    13.9856    -3.2500 C.ar    
   8 N8             0.3604    15.6207    -6.3243 N.1     
   9 N9            -1.2315     9.3561     0.5897 N.am    
  10 C10            0.1424     9.8767     0.6031 C.3     
  11 C11            0.2439    11.0262    -0.4044 C.3     
  12 C12           -0.2309    10.5406    -1.7759 C.3     
  13 C13           -1.6953    10.1051    -1.6859 C.3     
  14 C14           -1.8187     8.9451    -0.6929 C.3     
  15 F15            0.5534     9.4562    -2.1835 F       
  16 C16           -1.9376     9.2521     1.7330 C.2     
  17 C17           -1.2962     9.5615     3.0288 C.ar    
  18 C18           -1.9683    10.3341     3.9740 C.ar    
  19 C19           -1.3573    10.6204     5.1921 C.ar    
  20 C20           -0.0766    10.1324     5.4591 C.ar    
  21 C21            0.5842     9.3674     4.5186 C.ar    
  22 C22           -0.0179     9.0752     3.3107 C.ar    
  23 O23           -3.1017     8.9041     1.6988 O.2     
  24 N24           -2.5251    12.4291     8.0258 N.2     
  25 N25           -1.6677    11.6779     7.4318 N.2     
  26 C26           -2.0635    11.4404     6.2011 C.2     
  27 N27           -3.2525    12.0961     6.0300 N.pl3   
  28 C28           -3.5096    12.7125     7.2156 C.2     
  29 C29           -4.7105    13.5650     7.5355 C.3     
  30 C30           -5.4086    13.0157     8.7813 C.3     
  31 C31            0.5862    10.4418     6.7767 C.3     
  32 C32            0.7865     9.2065     7.6706 C.3     
  33 C33            2.1595     9.7932     8.0389 C.3     
  34 C34            2.1191    10.5297     6.6896 C.3     
  35 H35           -0.1053    12.1846    -6.1101 H       
  36 H36           -0.3159    10.3666    -4.4670 H       
  37 H37            0.1393    13.1668    -1.2803 H       
  38 H38            0.3647    14.9983    -2.9064 H       
  39 H39            0.3847    10.2428     1.6008 H       
  40 H40            0.8363     9.0839     0.3241 H       
  41 H41           -0.3827    11.8551    -0.0750 H       
  42 H42            1.2797    11.3581    -0.4746 H       
  43 H43           -2.3036    10.9426    -1.3444 H       
  44 H44           -2.0396     9.7813    -2.6681 H       
  45 H45           -1.2847     8.0763    -1.0776 H       
  46 H46           -2.8704     8.6965    -0.5503 H       
  47 H47           -2.9586    10.7096     3.7625 H       
  48 H48            1.5748     8.9927     4.7301 H       
  49 H49            0.5026     8.4728     2.5809 H       
  50 H50           -3.7989    12.1175     5.2288 H       
  51 H51           -4.3894    14.5899     7.7211 H       
  52 H52           -5.4028    13.5479     6.6938 H       
  53 H53           -6.2771    13.6323     9.0126 H       
  54 H54           -5.7297    11.9908     8.5957 H       
  55 H55           -4.7163    13.0328     9.6230 H       
  56 H56            0.1279    11.2850     7.2934 H       
  57 H57            0.0929     9.1580     8.5101 H       
  58 H58            0.8463     8.2706     7.1151 H       
  59 H59            2.1325    10.4595     8.9011 H       
  60 H60            2.9501     9.0458     8.1049 H       
  61 H61            2.5432     9.9555     5.8659 H       
  62 H62            2.5013    11.5494     6.7371 H       
@<TRIPOS>BOND
   1    1    2 1
   2    1    8 3
   3    2    3 ar
   4    2    7 ar
   5    3    4 ar
   6    3   35 1
   7    4    5 ar
   8    4   36 1
   9    5    6 ar
  10    5   12 1
  11    6    7 ar
  12    6   37 1
  13    7   38 1
  14    9   10 1
  15    9   14 1
  16    9   16 am
  17   10   11 1
  18   10   39 1
  19   10   40 1
  20   11   12 1
  21   11   41 1
  22   11   42 1
  23   12   13 1
  24   12   15 1
  25   13   14 1
  26   13   43 1
  27   13   44 1
  28   14   45 1
  29   14   46 1
  30   16   17 1
  31   16   23 2
  32   17   18 ar
  33   17   22 ar
  34   18   19 ar
  35   18   47 1
  36   19   20 ar
  37   19   26 1
  38   20   21 ar
  39   20   31 1
  40   21   22 ar
  41   21   48 1
  42   22   49 1
  43   24   25 1
  44   24   28 2
  45   25   26 2
  46   26   27 1
  47   27   28 1
  48   27   50 1
  49   28   29 1
  50   29   30 1
  51   29   51 1
  52   29   52 1
  53   30   53 1
  54   30   54 1
  55   30   55 1
  56   31   32 1
  57   31   34 1
  58   31   56 1
  59   32   33 1
  60   32   57 1
  61   32   58 1
  62   33   34 1
  63   33   59 1
  64   33   60 1
  65   34   61 1
  66   34   62 1

#	End of record

