#	Name: ASD06170203
#	Creating user name:	WinNT
#	Creation time:	15. 06. 2019 21:05

#	Modifying user name:	WinNT
#	Modification time:	15. 06. 2019 21:05

#	Program:	/corina/corina34_cracker 3.40 0067  02.08.2006

@<TRIPOS>MOLECULE
ASD06170203
  72   77    0    0    0
SMALL
NO_CHARGES


@<TRIPOS>ATOM
   1 C1             0.4746     0.5702     0.3909 C.2     
   2 C2            -0.1328    -0.5226    -0.2794 C.2     
   3 C3             0.4179    -0.9645    -1.4812 C.2     
   4 C4             1.5468    -0.3187    -1.9849 C.2     
   5 C5             2.0946     0.7230    -1.3085 C.2     
   6 N6             1.5638     1.1585    -0.1390 N.am    
   7 C7            -1.3224    -1.1781     0.2840 C.2     
   8 O8            -1.9092    -2.0291    -0.3574 O.2     
   9 N9            -1.7626    -0.8360     1.5111 N.am    
  10 C10            2.1579     2.2366     0.5282 C.ar    
  11 C11            3.1866     2.0128     1.4340 C.ar    
  12 C12            3.7705     3.0784     2.0905 C.ar    
  13 C13            3.3319     4.3670     1.8468 C.ar    
  14 C14            2.3074     4.5931     0.9459 C.ar    
  15 C15            1.7235     3.5324     0.2814 C.ar    
  16 O16            0.0090     0.9785     1.4407 O.2     
  17 C17           -2.9497    -1.3788     2.0024 C.ar    
  18 C18           -3.4639    -2.5378     1.4316 C.ar    
  19 C19           -4.6417    -3.0675     1.9266 C.ar    
  20 C20           -5.2701    -2.4145     2.9842 C.ar    
  21 C21           -4.6993    -1.2634     3.5030 C.ar    
  22 N22           -3.5714    -0.7882     3.0102 N.ar    
  23 O23           -6.4300    -2.9005     3.5012 O.3     
  24 N24           -6.2230    -4.9540     7.0722 N.ar    
  25 C25           -5.1446    -4.4077     6.5615 C.ar    
  26 C26           -5.1755    -3.7089     5.3613 C.ar    
  27 C27           -6.3696    -3.5773     4.6745 C.ar    
  28 C28           -7.5242    -4.1695     5.2338 C.ar    
  29 C29           -8.7702    -4.0794     4.5955 C.ar    
  30 C30           -9.8645    -4.6646     5.1641 C.ar    
  31 C31           -9.7555    -5.3544     6.3800 C.ar    
  32 C32           -8.5553    -5.4568     7.0223 C.ar    
  33 C33           -7.4109    -4.8659     6.4617 C.ar    
  34 O34          -10.8594    -5.9283     6.9264 O.3     
  35 C35          -10.6861    -6.6174     8.1662 C.3     
  36 O36          -11.0723    -4.5774     4.5455 O.3     
  37 C37          -11.1181    -3.8610     3.3099 C.3     
  38 C38            2.1600    -0.7786    -3.2825 C.3     
  39 C39            3.1090    -1.9180    -3.0136 C.ar    
  40 C40            2.6485    -3.2212    -3.0369 C.ar    
  41 C41            3.5189    -4.2664    -2.7903 C.ar    
  42 C42            4.8499    -4.0084    -2.5207 C.ar    
  43 C43            5.3106    -2.7053    -2.4982 C.ar    
  44 C44            4.4411    -1.6603    -2.7492 C.ar    
  45 H45           -0.0225    -1.7944    -2.0139 H       
  46 H46            2.9689     1.2143    -1.7092 H       
  47 H47           -1.2539    -0.2124     2.0525 H       
  48 H48            3.5293     1.0066     1.6250 H       
  49 H49            4.5703     2.9050     2.7953 H       
  50 H50            3.7901     5.1985     2.3615 H       
  51 H51            1.9667     5.6006     0.7582 H       
  52 H52            0.9271     3.7101    -0.4260 H       
  53 H53           -2.9502    -3.0180     0.6119 H       
  54 H54           -5.0645    -3.9664     1.5026 H       
  55 H55           -5.1809    -0.7517     4.3231 H       
  56 H56           -4.2071    -4.5040     7.0889 H       
  57 H57           -4.2715    -3.2695     4.9662 H       
  58 H58           -8.8632    -3.5494     3.6591 H       
  59 H59           -8.4859    -5.9905     7.9586 H       
  60 H60          -11.6425    -7.0272     8.4910 H       
  61 H61           -9.9695    -7.4281     8.0342 H       
  62 H62          -10.3140    -5.9226     8.9192 H       
  63 H63          -10.7983    -2.8320     3.4745 H       
  64 H64          -10.4535    -4.3371     2.5890 H       
  65 H65          -12.1374    -3.8673     2.9238 H       
  66 H66            1.3727    -1.1132    -3.9580 H       
  67 H67            2.7045     0.0475    -3.7399 H       
  68 H68            1.6085    -3.4228    -3.2475 H       
  69 H69            3.1589    -5.2845    -2.8078 H       
  70 H70            5.5298    -4.8249    -2.3272 H       
  71 H71            6.3505    -2.5037    -2.2873 H       
  72 H72            4.8018    -0.6424    -2.7353 H       
@<TRIPOS>BOND
   1    1    2 1
   2    1    6 am
   3    1   16 2
   4    2    3 2
   5    2    7 1
   6    3    4 1
   7    3   45 1
   8    4    5 2
   9    4   38 1
  10    5    6 1
  11    5   46 1
  12    6   10 1
  13    7    8 2
  14    7    9 am
  15    9   17 1
  16    9   47 1
  17   10   11 ar
  18   10   15 ar
  19   11   12 ar
  20   11   48 1
  21   12   13 ar
  22   12   49 1
  23   13   14 ar
  24   13   50 1
  25   14   15 ar
  26   14   51 1
  27   15   52 1
  28   17   18 ar
  29   17   22 ar
  30   18   19 ar
  31   18   53 1
  32   19   20 ar
  33   19   54 1
  34   20   21 ar
  35   20   23 1
  36   21   22 ar
  37   21   55 1
  38   23   27 1
  39   24   25 ar
  40   24   33 ar
  41   25   26 ar
  42   25   56 1
  43   26   27 ar
  44   26   57 1
  45   27   28 ar
  46   28   29 ar
  47   28   33 ar
  48   29   30 ar
  49   29   58 1
  50   30   31 ar
  51   30   36 1
  52   31   32 ar
  53   31   34 1
  54   32   33 ar
  55   32   59 1
  56   34   35 1
  57   35   60 1
  58   35   61 1
  59   35   62 1
  60   36   37 1
  61   37   63 1
  62   37   64 1
  63   37   65 1
  64   38   39 1
  65   38   66 1
  66   38   67 1
  67   39   40 ar
  68   39   44 ar
  69   40   41 ar
  70   40   68 1
  71   41   42 ar
  72   41   69 1
  73   42   43 ar
  74   42   70 1
  75   43   44 ar
  76   43   71 1
  77   44   72 1

#	End of record

