#	Name: ASD01320136
#	Creating user name:	WinNT
#	Creation time:	15. 06. 2019 19:16

#	Modifying user name:	WinNT
#	Modification time:	15. 06. 2019 19:16

#	Program:	/corina/corina34_cracker 3.40 0067  02.08.2006

@<TRIPOS>MOLECULE
ASD01320136
  72   75    0    0    0
SMALL
NO_CHARGES


@<TRIPOS>ATOM
   1 C1             2.9844     0.6311    -0.2636 C.3     
   2 C2             2.5006    -0.7864    -0.0976 C.ar    
   3 C3             1.3496    -1.2024    -0.7412 C.ar    
   4 C4             0.9033    -2.5008    -0.5908 C.ar    
   5 C5            -0.3512    -2.9533    -1.2925 C.3     
   6 C6             1.6121    -3.3889     0.2075 C.ar    
   7 N7             1.1628    -4.7052     0.3617 N.am    
   8 C8             1.0224    -5.5001    -0.7176 C.2     
   9 O9             1.2377    -5.0586    -1.8299 O.2     
  10 N10            0.6433    -6.7843    -0.5641 N.am    
  11 C11            0.5939    -7.6337    -1.6691 C.ar    
  12 C12            0.2966    -7.1243    -2.9001 C.ar    
  13 C13            0.2456    -7.9738    -4.0176 C.ar    
  14 C14           -0.0579    -7.4716    -5.2949 C.ar    
  15 C15           -0.1001    -8.3179    -6.3603 C.ar    
  16 C16            0.1531    -9.6796    -6.2062 C.ar    
  17 C17            0.4500   -10.2031    -4.9855 C.ar    
  18 C18            0.5040    -9.3604    -3.8607 C.ar    
  19 C19            0.8082    -9.8697    -2.5898 C.ar    
  20 C20            0.8579    -9.0114    -1.5041 C.ar    
  21 C21            1.1833    -9.5404    -0.1655 C.2     
  22 O22            1.3250    -8.7784     0.7714 O.2     
  23 N23            1.3235   -10.8681     0.0186 N.am    
  24 C24            1.6467   -11.3933     1.3475 C.3     
  25 C25            0.5459   -10.9977     2.3337 C.3     
  26 C26            1.7488   -12.9185     1.2821 C.3     
  27 C27            2.2077   -13.4575     2.6385 C.3     
  28 C28            2.3098   -14.9827     2.5731 C.3     
  29 C29            0.9405   -15.5712     2.2273 C.3     
  30 C30            0.4816   -15.0321     0.8709 C.3     
  31 C31            0.3795   -13.5070     0.9363 C.3     
  32 C32            2.9627   -10.8210     1.8075 C.2     
  33 O33            3.1372   -10.5712     2.9767 O.2     
  34 O34            3.9410   -10.5888     0.9183 O.3     
  35 C35            2.7679    -2.9682     0.8521 C.ar    
  36 C36            3.5401    -3.9287     1.7194 C.3     
  37 C37            3.2118    -1.6700     0.6934 C.ar    
  38 H38            2.5426     1.2588     0.5103 H       
  39 H39            4.0706     0.6569    -0.1762 H       
  40 H40            2.6900     1.0029    -1.2450 H       
  41 H41            0.7988    -0.5112    -1.3619 H       
  42 H42           -0.1109    -3.2434    -2.3154 H       
  43 H43           -0.7761    -3.8062    -0.7633 H       
  44 H44           -1.0741    -2.1376    -1.3065 H       
  45 H45            0.9525    -5.0455     1.2453 H       
  46 H46            0.4047    -7.1177     0.3150 H       
  47 H47            0.1003    -6.0685    -3.0147 H       
  48 H48           -0.2572    -6.4188    -5.4303 H       
  49 H49           -0.3336    -7.9280    -7.3400 H       
  50 H50            0.1128   -10.3291    -7.0681 H       
  51 H51            0.6433   -11.2605    -4.8811 H       
  52 H52            1.0065   -10.9233    -2.4595 H       
  53 H53            1.2105   -11.4760    -0.7288 H       
  54 H54           -0.4060   -11.4116     2.0010 H       
  55 H55            0.7863   -11.3884     3.3225 H       
  56 H56            0.4731    -9.9111     2.3803 H       
  57 H57            2.4701   -13.2018     0.5156 H       
  58 H58            3.1832   -13.0383     2.8849 H       
  59 H59            1.4863   -13.1742     3.4050 H       
  60 H60            3.0311   -15.2660     1.8067 H       
  61 H61            2.6367   -15.3667     3.5395 H       
  62 H62            1.0132   -16.6577     2.1807 H       
  63 H63            0.2191   -15.2878     2.9938 H       
  64 H64            1.2029   -15.3155     0.1044 H       
  65 H65           -0.4940   -15.4514     0.6245 H       
  66 H66           -0.3419   -13.2236     1.7028 H       
  67 H67            0.0525   -13.1230    -0.0300 H       
  68 H68            4.7672   -10.2211     1.2607 H       
  69 H69            4.3401    -4.3832     1.1351 H       
  70 H70            3.9685    -3.3907     2.5651 H       
  71 H71            2.8703    -4.7068     2.0854 H       
  72 H72            4.1130    -1.3434     1.1910 H       
@<TRIPOS>BOND
   1    1    2 1
   2    1   38 1
   3    1   39 1
   4    1   40 1
   5    2    3 ar
   6    2   37 ar
   7    3    4 ar
   8    3   41 1
   9    4    5 1
  10    4    6 ar
  11    5   42 1
  12    5   43 1
  13    5   44 1
  14    6    7 1
  15    6   35 ar
  16    7    8 am
  17    7   45 1
  18    8    9 2
  19    8   10 am
  20   10   11 1
  21   10   46 1
  22   11   12 ar
  23   11   20 ar
  24   12   13 ar
  25   12   47 1
  26   13   14 ar
  27   13   18 ar
  28   14   15 ar
  29   14   48 1
  30   15   16 ar
  31   15   49 1
  32   16   17 ar
  33   16   50 1
  34   17   18 ar
  35   17   51 1
  36   18   19 ar
  37   19   20 ar
  38   19   52 1
  39   20   21 1
  40   21   22 2
  41   21   23 am
  42   23   24 1
  43   23   53 1
  44   24   25 1
  45   24   26 1
  46   24   32 1
  47   25   54 1
  48   25   55 1
  49   25   56 1
  50   26   27 1
  51   26   31 1
  52   26   57 1
  53   27   28 1
  54   27   58 1
  55   27   59 1
  56   28   29 1
  57   28   60 1
  58   28   61 1
  59   29   30 1
  60   29   62 1
  61   29   63 1
  62   30   31 1
  63   30   64 1
  64   30   65 1
  65   31   66 1
  66   31   67 1
  67   32   33 2
  68   32   34 1
  69   34   68 1
  70   35   36 1
  71   35   37 ar
  72   36   69 1
  73   36   70 1
  74   36   71 1
  75   37   72 1

#	End of record

