#	Name: ASD03930104
#	Creating user name:	WinNT
#	Creation time:	15. 06. 2019 20:47

#	Modifying user name:	WinNT
#	Modification time:	15. 06. 2019 20:47

#	Program:	/corina/corina34_cracker 3.40 0067  02.08.2006

@<TRIPOS>MOLECULE
ASD03930104
  49   52    0    0    0
SMALL
NO_CHARGES


@<TRIPOS>ATOM
   1 C1            -0.1328     1.4524     0.8493 C.3     
   2 O2            -0.0824     0.0313     0.7081 O.3     
   3 C3            -1.2650    -0.6126     0.5177 C.ar    
   4 C4            -2.4508     0.1157     0.4685 C.ar    
   5 C5            -3.6577    -0.5201     0.2765 C.ar    
   6 C6            -3.7006    -1.9021     0.1295 C.ar    
   7 C7            -2.5038    -2.6419     0.1786 C.ar    
   8 C8            -1.2843    -1.9848     0.3685 C.ar    
   9 C9            -2.8790    -4.0426    -0.0051 C.2     
  10 C10           -1.9453    -5.2254    -0.0288 C.3     
  11 C11           -4.2276    -4.0756    -0.1499 C.2     
  12 N12           -4.7308    -2.7976    -0.0709 N.pl3   
  13 C13           -6.1474    -2.4412    -0.1822 C.3     
  14 C14           -6.5132    -2.2592    -1.6566 C.3     
  15 C15           -5.0325    -5.2969    -0.3612 C.ar    
  16 C16           -4.7363    -6.1540    -1.4235 C.ar    
  17 C17           -5.4864    -7.2917    -1.6193 C.ar    
  18 C18           -6.5423    -7.5885    -0.7573 C.ar    
  19 C19           -6.8389    -6.7331     0.3039 C.ar    
  20 C20           -6.0863    -5.5978     0.5047 C.ar    
  21 C21           -7.3502    -8.8136    -0.9696 C.ar    
  22 C22           -8.4060    -9.1131    -0.1101 C.ar    
  23 C23           -9.1547   -10.2545    -0.3128 C.ar    
  24 C24           -8.8592   -11.1007    -1.3665 C.ar    
  25 C25           -7.8126   -10.8086    -2.2226 C.ar    
  26 C26           -7.0604    -9.6673    -2.0328 C.ar    
  27 H27            0.8759     1.8390     0.9950 H       
  28 H28           -0.5641     1.8918    -0.0501 H       
  29 H29           -0.7487     1.7102     1.7109 H       
  30 H30           -2.4241     1.1893     0.5824 H       
  31 H31           -4.5710     0.0551     0.2404 H       
  32 H32           -0.3638    -2.5483     0.4068 H       
  33 H33           -1.8268    -5.6150     0.9823 H       
  34 H34           -2.3594    -6.0023    -0.6714 H       
  35 H35           -0.9745    -4.9142    -0.4144 H       
  36 H36           -6.7569    -3.2360     0.2479 H       
  37 H37           -6.3314    -1.5109     0.3553 H       
  38 H38           -7.5842    -2.0767    -1.7454 H       
  39 H39           -5.9649    -1.4102    -2.0649 H       
  40 H40           -6.2512    -3.1610    -2.2100 H       
  41 H41           -3.9193    -5.9240    -2.0914 H       
  42 H42           -5.2575    -7.9546    -2.4407 H       
  43 H43           -7.6566    -6.9637     0.9708 H       
  44 H44           -6.3159    -4.9359     1.3266 H       
  45 H45           -8.6374    -8.4534     0.7131 H       
  46 H46           -9.9727   -10.4877     0.3527 H       
  47 H47           -9.4476   -11.9930    -1.5211 H       
  48 H48           -7.5865   -11.4728    -3.0436 H       
  49 H49           -6.2435    -9.4402    -2.7018 H       
@<TRIPOS>BOND
   1    1    2 1
   2    1   27 1
   3    1   28 1
   4    1   29 1
   5    2    3 1
   6    3    4 ar
   7    3    8 ar
   8    4    5 ar
   9    4   30 1
  10    5    6 ar
  11    5   31 1
  12    6    7 ar
  13    6   12 1
  14    7    8 ar
  15    7    9 1
  16    8   32 1
  17    9   10 1
  18    9   11 2
  19   10   33 1
  20   10   34 1
  21   10   35 1
  22   11   12 1
  23   11   15 1
  24   12   13 1
  25   13   14 1
  26   13   36 1
  27   13   37 1
  28   14   38 1
  29   14   39 1
  30   14   40 1
  31   15   16 ar
  32   15   20 ar
  33   16   17 ar
  34   16   41 1
  35   17   18 ar
  36   17   42 1
  37   18   19 ar
  38   18   21 1
  39   19   20 ar
  40   19   43 1
  41   20   44 1
  42   21   22 ar
  43   21   26 ar
  44   22   23 ar
  45   22   45 1
  46   23   24 ar
  47   23   46 1
  48   24   25 ar
  49   24   47 1
  50   25   26 ar
  51   25   48 1
  52   26   49 1

#	End of record

