#	Name: ASD01810730
#	Creating user name:	WinNT
#	Creation time:	15. 06. 2019 19:25

#	Modifying user name:	WinNT
#	Modification time:	15. 06. 2019 19:25

#	Program:	/corina/corina34_cracker 3.40 0067  02.08.2006

@<TRIPOS>MOLECULE
ASD01810730
  57   59    0    0    0
SMALL
NO_CHARGES


@<TRIPOS>ATOM
   1 N1             1.9723     4.9813     1.5800 N.am    
   2 C2             0.7986     5.6427     1.6180 C.2     
   3 O3            -0.1101     5.3112     0.8815 O.2     
   4 N4             0.6323     6.6717     2.4724 N.am    
   5 C5            -0.6435     7.3906     2.5138 C.3     
   6 C6            -0.5680     8.5038     3.5606 C.3     
   7 C7            -1.8532     9.3328     3.5172 C.3     
   8 C8            -0.4062     7.8862     4.9511 C.3     
   9 C9             2.1103     3.8520     0.7744 C.ar    
  10 C10            3.3535     3.2417     0.6531 C.ar    
  11 C11            3.4750     2.1121    -0.1571 C.ar    
  12 C12            2.3317     1.6428    -0.8145 C.ar    
  13 C13            1.1352     2.3077    -0.6400 C.ar    
  14 N14            1.0557     3.3697     0.1380 N.ar    
  15 C15            4.7793     1.4279    -0.3176 C.2     
  16 O16            4.8420     0.2162    -0.2517 O.2     
  17 N17            5.8963     2.1496    -0.5367 N.am    
  18 C18            5.8525     3.6181    -0.5278 C.3     
  19 C19            6.4575     4.1374    -1.8359 C.3     
  20 C20            7.8602     3.5515    -2.0125 C.3     
  21 C21            7.7711     2.0258    -2.0937 C.3     
  22 C22            7.1821     1.4826    -0.7829 C.3     
  23 C23            8.4718     4.0869    -3.2815 C.ar    
  24 C24            9.6491     4.8117    -3.2260 C.ar    
  25 C25           10.2145     5.3047    -4.3837 C.ar    
  26 C26            9.5961     5.0704    -5.6135 C.ar    
  27 C27            8.4084     4.3378    -5.6622 C.ar    
  28 C28            7.8566     3.8465    -4.4972 C.ar    
  29 C29           10.1770     5.5796    -6.8193 C.1     
  30 N30           10.6379     5.9835    -7.7758 N.1     
  31 H31            2.7223     5.2935     2.1101 H       
  32 H32            1.3573     6.9362     3.0600 H       
  33 H33           -0.8475     7.8253     1.5352 H       
  34 H34           -1.4426     6.6977     2.7772 H       
  35 H35            0.2862     9.1462     3.3468 H       
  36 H36           -2.7073     8.6903     3.7310 H       
  37 H37           -1.7993    10.1259     4.2631 H       
  38 H38           -1.9684     9.7728     2.5267 H       
  39 H39           -1.2603     7.2437     5.1649 H       
  40 H40            0.5094     7.2956     4.9820 H       
  41 H41           -0.3523     8.6792     5.6969 H       
  42 H42            4.2116     3.6357     1.1774 H       
  43 H43            2.3855     0.7716    -1.4506 H       
  44 H44            0.2497     1.9504    -1.1446 H       
  45 H45            4.8183     3.9524    -0.4455 H       
  46 H46            6.4291     3.9958     0.3167 H       
  47 H47            5.8286     3.8344    -2.6731 H       
  48 H48            6.5192     5.2251    -1.8016 H       
  49 H49            8.4815     3.8343    -1.1627 H       
  50 H50            7.1299     1.7427    -2.9284 H       
  51 H51            8.7678     1.6106    -2.2429 H       
  52 H52            7.8649     1.6897     0.0411 H       
  53 H53            7.0255     0.4074    -0.8690 H       
  54 H54           10.1264     4.9921    -2.2741 H       
  55 H55           11.1331     5.8709    -4.3389 H       
  56 H56            7.9249     4.1530    -6.6101 H       
  57 H57            6.9401     3.2762    -4.5339 H       
@<TRIPOS>BOND
   1    1    2 am
   2    1    9 1
   3    1   31 1
   4    2    3 2
   5    2    4 am
   6    4    5 1
   7    4   32 1
   8    5    6 1
   9    5   33 1
  10    5   34 1
  11    6    7 1
  12    6    8 1
  13    6   35 1
  14    7   36 1
  15    7   37 1
  16    7   38 1
  17    8   39 1
  18    8   40 1
  19    8   41 1
  20    9   10 ar
  21    9   14 ar
  22   10   11 ar
  23   10   42 1
  24   11   12 ar
  25   11   15 1
  26   12   13 ar
  27   12   43 1
  28   13   14 ar
  29   13   44 1
  30   15   16 2
  31   15   17 am
  32   17   18 1
  33   17   22 1
  34   18   19 1
  35   18   45 1
  36   18   46 1
  37   19   20 1
  38   19   47 1
  39   19   48 1
  40   20   21 1
  41   20   23 1
  42   20   49 1
  43   21   22 1
  44   21   50 1
  45   21   51 1
  46   22   52 1
  47   22   53 1
  48   23   24 ar
  49   23   28 ar
  50   24   25 ar
  51   24   54 1
  52   25   26 ar
  53   25   55 1
  54   26   27 ar
  55   26   29 1
  56   27   28 ar
  57   27   56 1
  58   28   57 1
  59   29   30 3

#	End of record

