#	Name: ASD01884739
#	Creating user name:	WinNT
#	Creation time:	15. 06. 2019 19:48

#	Modifying user name:	WinNT
#	Modification time:	15. 06. 2019 19:48

#	Program:	/corina/corina34_cracker 3.40 0067  02.08.2006

@<TRIPOS>MOLECULE
ASD01884739
  56   59    0    0    0
SMALL
NO_CHARGES


@<TRIPOS>ATOM
   1 C1            -0.0170     1.3882     0.0433 C.2     
   2 C2             0.0019    -0.0043     0.0364 C.2     
   3 C3            -1.2135    -0.6983     0.0098 C.2     
   4 C4            -2.3898    -0.0118    -0.0092 C.2     
   5 N5            -2.4100     1.3457    -0.0025 N.am    
   6 C6            -1.2677     2.0576     0.0292 C.2     
   7 O7            -1.3080     3.2764     0.0350 O.2     
   8 C8            -3.6959     2.0473    -0.0240 C.3     
   9 C9             1.2062     2.1323     0.0702 C.1     
  10 N10            2.1766     2.7226     0.0916 N.1     
  11 C11           -4.1718     2.2839     1.4107 C.3     
  12 C12           -5.5148     3.0166     1.3882 C.3     
  13 C13           -6.0508     3.1430     2.8156 C.3     
  14 C14           -5.3246     4.4117     0.7895 C.3     
  15 N15           -1.2200    -2.1015     0.0024 N.pl3   
  16 C16            0.0349    -2.8552    -0.1238 C.3     
  17 C17            0.1300    -3.8512     1.0366 C.3     
  18 C18           -1.1277    -4.7201     1.0625 C.3     
  19 C19           -2.3604    -3.8418     1.2774 C.3     
  20 C20           -2.4813    -2.8449     0.1267 C.3     
  21 O21           -1.2491    -5.4279    -0.1740 O.3     
  22 C22           -2.1257    -6.4691    -0.2020 C.ar    
  23 C23           -2.5990    -7.0324     0.9770 C.ar    
  24 O24           -2.2009    -6.5534     2.1873 O.3     
  25 C25           -1.0213    -5.7416     2.2010 C.3     
  26 C26           -2.5471    -6.9712    -1.4243 C.ar    
  27 C27           -3.4344    -8.0298    -1.4691 C.ar    
  28 C28           -3.9044    -8.5911    -0.2962 C.ar    
  29 C29           -3.4888    -8.0952     0.9250 C.ar    
  30 H30            0.9394    -0.5402     0.0509 H       
  31 H31           -3.3221    -0.5565    -0.0303 H       
  32 H32           -3.5787     3.0052    -0.5306 H       
  33 H33           -4.4308     1.4427    -0.5555 H       
  34 H34           -4.2890     1.3260     1.9173 H       
  35 H35           -3.4369     2.8885     1.9422 H       
  36 H36           -6.2251     2.4548     0.7817 H       
  37 H37           -5.3405     3.7049     3.4221 H       
  38 H38           -7.0076     3.6650     2.7996 H       
  39 H39           -6.1863     2.1491     3.2421 H       
  40 H40           -4.9427     4.3217    -0.2275 H       
  41 H41           -6.2814     4.9337     0.7734 H       
  42 H42           -4.6143     4.9736     1.3959 H       
  43 H43            0.0433    -3.3953    -1.0706 H       
  44 H44            0.8797    -2.1676    -0.0854 H       
  45 H45            1.0068    -4.4845     0.9015 H       
  46 H46            0.2154    -3.3069     1.9771 H       
  47 H47           -3.2516    -4.4684     1.3126 H       
  48 H48           -2.2603    -3.2983     2.2169 H       
  49 H49           -3.2961    -2.1504     0.3310 H       
  50 H50           -2.6809    -3.3833    -0.7998 H       
  51 H51           -0.1421    -6.3683     2.0513 H       
  52 H52           -0.9443    -5.2213     3.1557 H       
  53 H53           -2.1817    -6.5343    -2.3419 H       
  54 H54           -3.7615    -8.4191    -2.4219 H       
  55 H55           -4.5977    -9.4183    -0.3344 H       
  56 H56           -3.8571    -8.5357     1.8398 H       
@<TRIPOS>BOND
   1    1    2 2
   2    1    9 1
   3    1    6 1
   4    2    3 1
   5    2   30 1
   6    3    4 2
   7    3   15 1
   8    4    5 1
   9    4   31 1
  10    5    8 1
  11    5    6 am
  12    6    7 2
  13    8   11 1
  14    8   32 1
  15    8   33 1
  16    9   10 3
  17   11   12 1
  18   11   34 1
  19   11   35 1
  20   12   13 1
  21   12   14 1
  22   12   36 1
  23   13   37 1
  24   13   38 1
  25   13   39 1
  26   14   40 1
  27   14   41 1
  28   14   42 1
  29   15   16 1
  30   15   20 1
  31   16   17 1
  32   16   43 1
  33   16   44 1
  34   17   18 1
  35   17   45 1
  36   17   46 1
  37   18   19 1
  38   18   21 1
  39   18   25 1
  40   19   20 1
  41   19   47 1
  42   19   48 1
  43   20   49 1
  44   20   50 1
  45   21   22 1
  46   22   23 ar
  47   22   26 ar
  48   23   24 1
  49   23   29 ar
  50   24   25 1
  51   25   51 1
  52   25   52 1
  53   26   27 ar
  54   26   53 1
  55   27   28 ar
  56   27   54 1
  57   28   29 ar
  58   28   55 1
  59   29   56 1

#	End of record

