#	Name: ASD07930068
#	Creating user name:	WinNT
#	Creation time:	15. 06. 2019 21:11

#	Modifying user name:	WinNT
#	Modification time:	15. 06. 2019 21:11

#	Program:	/corina/corina34_cracker 3.40 0067  02.08.2006

@<TRIPOS>MOLECULE
ASD07930068
  59   62    0    0    0
SMALL
NO_CHARGES


@<TRIPOS>ATOM
   1 C1            -0.0180     1.4754     0.0102 C.2     
   2 C2             0.0021    -0.0041     0.0020 C.2     
   3 N3             1.1814     2.1509     0.0023 N.am    
   4 N4             1.1194    -0.6400     0.4288 N.am    
   5 C5             2.2493     0.1650     0.9143 C.3     
   6 C6             2.4261     1.3707    -0.0208 C.3     
   7 C7            -1.2008     2.1485     0.0195 C.2     
   8 C8            -1.2247     3.5486     0.0291 C.2     
   9 C9            -0.0458     4.2425     0.0303 C.2     
  10 C10            1.2139     3.4948     0.0143 C.2     
  11 O11           -0.9642    -0.6358    -0.3794 O.2     
  12 O12            2.2807     4.0852     0.0118 O.2     
  13 C13            0.4239     6.4402     1.0348 C.2     
  14 N14            0.2552     7.6848     0.6804 N.2     
  15 C15           -0.3161     7.7283    -0.5326 C.2     
  16 C16           -0.5113     6.4636    -0.9513 C.2     
  17 N17           -0.0431     5.6402     0.0404 N.pl3   
  18 C18           -0.6774     8.9771    -1.2948 C.3     
  19 C19            1.2002    -2.1026     0.4064 C.3     
  20 C20            1.7676    -2.5615    -0.9383 C.3     
  21 O21            3.1161    -2.1063    -1.0666 O.3     
  22 C22            3.7709    -2.4315    -2.2128 C.ar    
  23 C23            5.0825    -2.0218    -2.4032 C.ar    
  24 C24            5.7468    -2.3533    -3.5680 C.ar    
  25 C25            5.1038    -3.0938    -4.5457 C.ar    
  26 C26            3.7950    -3.5033    -4.3570 C.ar    
  27 C27            3.1300    -3.1779    -3.1903 C.ar    
  28 C28            7.2072    -0.8962    -1.7967 C.3     
  29 C29            5.7822    -1.2150    -1.3399 C.3     
  30 C30            5.0183     0.0895    -1.1042 C.3     
  31 C31            5.8315    -2.0194    -0.0393 C.3     
  32 F32            7.1621    -0.1607    -2.9859 F       
  33 F33            7.8567    -0.1472    -0.8096 F       
  34 F34            7.9057    -2.0890    -2.0122 F       
  35 F35            5.7544    -3.4166    -5.6849 F       
  36 H36            2.0426     0.5136     1.9261 H       
  37 H37            3.1572    -0.4381     0.9099 H       
  38 H38            2.6247     1.0242    -1.0350 H       
  39 H39            3.2543     1.9881     0.3270 H       
  40 H40           -2.1297     1.5976     0.0190 H       
  41 H41           -2.1668     4.0767     0.0353 H       
  42 H42            0.8650     6.1025     1.9610 H       
  43 H43           -0.9521     6.1566    -1.8883 H       
  44 H44            0.1651     9.2797    -1.9167 H       
  45 H45           -1.5430     8.7793    -1.9270 H       
  46 H46           -0.9156     9.7756    -0.5921 H       
  47 H47            1.8522    -2.4428     1.2110 H       
  48 H48            0.2042    -2.5236     0.5432 H       
  49 H49            1.7451    -3.6500    -0.9897 H       
  50 H50            1.1658    -2.1470    -1.7471 H       
  51 H51            6.7679    -2.0345    -3.7165 H       
  52 H52            3.2947    -4.0808    -5.1203 H       
  53 H53            2.1103    -3.5010    -3.0416 H       
  54 H54            4.0031    -0.1377    -0.7787 H       
  55 H55            5.5244     0.6730    -0.3351 H       
  56 H56            4.9832     0.6625    -2.0307 H       
  57 H57            6.3758    -2.9487    -0.2072 H       
  58 H58            6.3376    -1.4358     0.7298 H       
  59 H59            4.8163    -2.2465     0.2861 H       
@<TRIPOS>BOND
   1    1    2 1
   2    1    3 1
   3    1    7 2
   4    2    4 am
   5    2   11 2
   6    3    6 1
   7    3   10 am
   8    4    5 1
   9    4   19 1
  10    5    6 1
  11    5   36 1
  12    5   37 1
  13    6   38 1
  14    6   39 1
  15    7    8 1
  16    7   40 1
  17    8    9 2
  18    8   41 1
  19    9   10 1
  20    9   17 1
  21   10   12 2
  22   13   14 2
  23   13   17 1
  24   13   42 1
  25   14   15 1
  26   15   16 2
  27   15   18 1
  28   16   17 1
  29   16   43 1
  30   18   44 1
  31   18   45 1
  32   18   46 1
  33   19   20 1
  34   19   47 1
  35   19   48 1
  36   20   21 1
  37   20   49 1
  38   20   50 1
  39   21   22 1
  40   22   23 ar
  41   22   27 ar
  42   23   24 ar
  43   23   29 1
  44   24   25 ar
  45   24   51 1
  46   25   26 ar
  47   25   35 1
  48   26   27 ar
  49   26   52 1
  50   27   53 1
  51   28   29 1
  52   28   32 1
  53   28   33 1
  54   28   34 1
  55   29   30 1
  56   29   31 1
  57   30   54 1
  58   30   55 1
  59   30   56 1
  60   31   57 1
  61   31   58 1
  62   31   59 1

#	End of record

