#	Name: ASD02039156
#	Creating user name:	WinNT
#	Creation time:	15. 06. 2019 20:17

#	Modifying user name:	WinNT
#	Modification time:	15. 06. 2019 20:17

#	Program:	/corina/corina34_cracker 3.40 0067  02.08.2006

@<TRIPOS>MOLECULE
ASD02039156
  46   49    0    0    0
SMALL
NO_CHARGES


@<TRIPOS>ATOM
   1 N1            -0.0440     1.3714    -0.1171 N.2     
   2 C2            -0.0054     0.0662    -0.0726 C.2     
   3 N3             1.2920    -0.2985    -0.1555 N.2     
   4 C4             1.9674     0.8208    -0.2461 C.2     
   5 O5             1.0790     1.8189    -0.2165 O.3     
   6 C6             3.4638     0.9569    -0.3615 C.3     
   7 O7             3.7783     1.9135    -1.3755 O.3     
   8 C8             4.9930     1.7998    -1.9760 C.ar    
   9 N9            -1.0958    -0.7872     0.0395 N.pl3   
  10 C10           -2.3852    -0.2605     0.1830 C.ar    
  11 C11           -2.7019     0.9663    -0.3859 C.ar    
  12 C12           -3.9736     1.4850    -0.2439 C.ar    
  13 C13           -4.9349     0.7811     0.4668 C.ar    
  14 C14           -4.6195    -0.4440     1.0353 C.ar    
  15 C15           -3.3495    -0.9669     0.8894 C.ar    
  16 C16            5.3176     2.6317    -3.0459 C.ar    
  17 C17            6.5318     2.5343    -3.6632 C.ar    
  18 C18            7.4630     1.5959    -3.2265 C.ar    
  19 C19            7.1448     0.7507    -2.1463 C.ar    
  20 C20            5.8990     0.8658    -1.5192 C.ar    
  21 N21            8.7322     1.2624    -3.6275 N.pl3   
  22 N22            9.2095     0.2265    -2.8180 N.2     
  23 C23            8.3094    -0.1034    -1.9362 C.2     
  24 O24           -6.1871     1.2929     0.6066 O.3     
  25 C25           -5.6643    -1.2075     1.8076 C.3     
  26 C26           -6.4423     2.5592    -0.0043 C.3     
  27 F27           -5.5810     3.5199     0.5365 F       
  28 F28           -6.2270     2.4635    -1.3833 F       
  29 C29            4.0380     1.4252     0.9771 C.3     
  30 H30            3.8972    -0.0078    -0.6252 H       
  31 H31           -0.9639    -1.7480     0.0184 H       
  32 H32           -1.9536     1.5145    -0.9390 H       
  33 H33           -4.2200     2.4390    -0.6860 H       
  34 H34           -3.1041    -1.9211     1.3318 H       
  35 H35            4.6004     3.3617    -3.3911 H       
  36 H36            6.7698     3.1855    -4.4912 H       
  37 H37            5.6456     0.2220    -0.6899 H       
  38 H38            9.2201     1.6783    -4.3555 H       
  39 H39            8.4076    -0.8715    -1.1835 H       
  40 H40           -6.2070    -1.8670     1.1304 H       
  41 H41           -5.1810    -1.8012     2.5835 H       
  42 H42           -6.3607    -0.5063     2.2675 H       
  43 H43           -7.4756     2.8512     0.1828 H       
  44 H44            3.6046     2.3900     1.2408 H       
  45 H45            3.7981     0.6956     1.7505 H       
  46 H46            5.1203     1.5237     0.8937 H       
@<TRIPOS>BOND
   1    1    2 2
   2    1    5 1
   3    2    3 1
   4    2    9 1
   5    3    4 2
   6    4    5 1
   7    4    6 1
   8    6    7 1
   9    6   29 1
  10    6   30 1
  11    7    8 1
  12    8   16 ar
  13    8   20 ar
  14    9   10 1
  15    9   31 1
  16   10   11 ar
  17   10   15 ar
  18   11   12 ar
  19   11   32 1
  20   12   13 ar
  21   12   33 1
  22   13   14 ar
  23   13   24 1
  24   14   15 ar
  25   14   25 1
  26   15   34 1
  27   16   17 ar
  28   16   35 1
  29   17   18 ar
  30   17   36 1
  31   18   19 ar
  32   18   21 1
  33   19   20 ar
  34   19   23 1
  35   20   37 1
  36   21   22 1
  37   21   38 1
  38   22   23 2
  39   23   39 1
  40   24   26 1
  41   25   40 1
  42   25   41 1
  43   25   42 1
  44   26   27 1
  45   26   28 1
  46   26   43 1
  47   29   44 1
  48   29   45 1
  49   29   46 1

#	End of record

