#	Name: ASD03430308
#	Creating user name:	WinNT
#	Creation time:	15. 06. 2019 20:40

#	Modifying user name:	WinNT
#	Modification time:	15. 06. 2019 20:40

#	Program:	/corina/corina34_cracker 3.40 0067  02.08.2006

@<TRIPOS>MOLECULE
ASD03430308
  48   53    0    0    0
SMALL
NO_CHARGES


@<TRIPOS>ATOM
   1 C1            -0.0167     1.3810     0.0096 C.ar    
   2 C2             0.0021    -0.0041     0.0020 C.ar    
   3 C3             1.2032    -0.6811    -0.0141 C.ar    
   4 C4             2.4093     0.0140    -0.0109 C.ar    
   5 C5             2.3874     1.4051    -0.0076 C.ar    
   6 C6             1.1835     2.0871     0.0020 C.ar    
   7 O7             3.4719    -0.8409     0.0012 O.3     
   8 C8             1.5519    -2.1449    -0.0512 C.3     
   9 C9             3.0383    -2.1436    -0.4346 C.3     
  10 C10            0.4258    -3.8628     0.9983 C.ar    
  11 C11            1.3140    -2.8235     1.2650 C.ar    
  12 C12            0.7202    -2.9026    -1.0459 C.2     
  13 N13            0.0985    -3.8821    -0.3596 N.am    
  14 O14            0.6264    -2.6774    -2.2340 O.2     
  15 C15            1.7783    -2.6097     2.5432 C.ar    
  16 C16            1.3638    -3.4303     3.5776 C.ar    
  17 C17            0.4823    -4.4649     3.3244 C.ar    
  18 C18            0.0140    -4.6833     2.0451 C.ar    
  19 C19           -0.8139    -4.8540    -0.9672 C.3     
  20 C20           -2.2213    -4.3170    -0.9241 C.ar    
  21 C21           -2.7005    -3.5558    -1.9756 C.ar    
  22 C22           -3.9879    -3.0615    -1.9428 C.ar    
  23 C23           -4.8079    -3.3308    -0.8452 C.ar    
  24 C24           -4.3180    -4.0995     0.2124 C.ar    
  25 C25           -3.0303    -4.5920     0.1642 C.ar    
  26 C26           -6.1876    -2.8043    -0.8030 C.2     
  27 O27           -6.6109    -2.1355    -1.7244 O.2     
  28 O28           -6.9761    -3.0660     0.2574 O.3     
  29 O29           -1.0498     2.2739     0.0188 O.3     
  30 C30           -0.4713     3.5266     0.4304 C.3     
  31 O31            0.9019     3.4234     0.0058 O.3     
  32 H32           -0.9267    -0.5552     0.0091 H       
  33 H33            3.3161     1.9562    -0.0125 H       
  34 H34            3.1601    -2.2517    -1.5123 H       
  35 H35            3.5759    -2.9285     0.0975 H       
  36 H36            2.4670    -1.8011     2.7389 H       
  37 H37            1.7283    -3.2630     4.5804 H       
  38 H38            0.1591    -5.1054     4.1318 H       
  39 H39           -0.6746    -5.4933     1.8551 H       
  40 H40           -0.5228    -5.0274    -2.0032 H       
  41 H41           -0.7659    -5.7922    -0.4144 H       
  42 H42           -2.0650    -3.3480    -2.8237 H       
  43 H43           -4.3606    -2.4673    -2.7640 H       
  44 H44           -4.9469    -4.3112     1.0645 H       
  45 H45           -2.6500    -5.1868     0.9816 H       
  46 H46           -7.8711    -2.7001     0.2399 H       
  47 H47           -0.9638     4.3593    -0.0718 H       
  48 H48           -0.5334     3.6399     1.5127 H       
@<TRIPOS>BOND
   1    1    2 ar
   2    1    6 ar
   3    1   29 1
   4    2    3 ar
   5    2   32 1
   6    3    4 ar
   7    3    8 1
   8    4    5 ar
   9    4    7 1
  10    5    6 ar
  11    5   33 1
  12    6   31 1
  13    7    9 1
  14    8    9 1
  15    8   11 1
  16    8   12 1
  17    9   34 1
  18    9   35 1
  19   10   11 ar
  20   10   13 1
  21   10   18 ar
  22   11   15 ar
  23   12   13 am
  24   12   14 2
  25   13   19 1
  26   15   16 ar
  27   15   36 1
  28   16   17 ar
  29   16   37 1
  30   17   18 ar
  31   17   38 1
  32   18   39 1
  33   19   20 1
  34   19   40 1
  35   19   41 1
  36   20   21 ar
  37   20   25 ar
  38   21   22 ar
  39   21   42 1
  40   22   23 ar
  41   22   43 1
  42   23   24 ar
  43   23   26 1
  44   24   25 ar
  45   24   44 1
  46   25   45 1
  47   26   27 2
  48   26   28 1
  49   28   46 1
  50   29   30 1
  51   30   31 1
  52   30   47 1
  53   30   48 1

#	End of record

