#	Name: ASD08178062
#	Creating user name:	WinNT
#	Creation time:	15. 06. 2019 21:18

#	Modifying user name:	WinNT
#	Modification time:	15. 06. 2019 21:18

#	Program:	/corina/corina34_cracker 3.40 0067  02.08.2006

@<TRIPOS>MOLECULE
ASD08178062
  65   68    0    0    0
SMALL
NO_CHARGES


@<TRIPOS>ATOM
   1 N1            -0.0150     1.2583     0.0090 N.2     
   2 N2             0.0021    -0.0041     0.0020 N.2     
   3 C3             1.1271     1.8769     0.0014 C.2     
   4 S4             2.3826     0.7116    -0.0169 S.3     
   5 C5             1.1681    -0.5677    -0.0121 C.2     
   6 N6             1.3017     3.2566     0.0067 N.am    
   7 C7             0.2284     4.0717     0.0214 C.2     
   8 O8            -0.8897     3.6019     0.0299 O.2     
   9 C9             1.4387    -2.0502    -0.0227 C.3     
  10 C10            1.5165    -2.5442    -1.4687 C.3     
  11 C11            1.8986    -4.7206    -3.2516 C.3     
  12 C12            2.1699    -6.2152    -3.4347 C.3     
  13 C13            2.2167    -6.5408    -4.9053 C.2     
  14 N14            3.2694    -6.5184    -5.6596 N.2     
  15 S15            0.8491    -7.0282    -5.9071 S.3     
  16 C16            1.9000    -7.1354    -7.2557 C.2     
  17 N17            3.1017    -6.8250    -6.8728 N.2     
  18 N18            1.5289    -7.4992    -8.5457 N.am    
  19 C19            2.4537    -7.5464    -9.5250 C.2     
  20 O20            3.6096    -7.2716    -9.2812 O.2     
  21 C21            2.0516    -7.9407   -10.9228 C.3     
  22 C22            0.4176     5.5667     0.0272 C.3     
  23 C23           -0.9494     6.2538     0.0441 C.3     
  24 C24            3.2807    -7.9145   -11.8336 C.3     
  25 S25            1.8422    -4.3286    -1.4814 S.3     
  26 C26           -0.7723     7.7766     0.1761 C.3     
  27 C27           -1.4018     8.4044    -1.0846 C.3     
  28 C28           -2.4188     7.3420    -1.5707 C.3     
  29 C29           -1.6802     6.0093    -1.2923 C.3     
  30 C30            2.9104    -8.4346   -13.2336 C.3     
  31 C31            3.1887    -7.2816   -14.2199 C.3     
  32 C32            4.2391    -6.4053   -13.4933 C.3     
  33 C33            3.7710    -6.4636   -12.0179 C.3     
  34 H34            2.1959     3.6323    -0.0001 H       
  35 H35            2.3843    -2.2506     0.4811 H       
  36 H36            0.6334    -2.5702     0.4961 H       
  37 H37            0.5709    -2.3438    -1.9724 H       
  38 H38            2.3218    -2.0242    -1.9874 H       
  39 H39            2.6943    -4.1461    -3.7258 H       
  40 H40            0.9434    -4.4658    -3.7108 H       
  41 H41            3.1250    -6.4700    -2.9755 H       
  42 H42            1.3741    -6.7896    -2.9605 H       
  43 H43            0.6045    -7.7190    -8.7407 H       
  44 H44            1.6303    -8.9459   -10.9098 H       
  45 H45            1.3064    -7.2392   -11.2980 H       
  46 H46            0.9817     5.8582     0.9132 H       
  47 H47            0.9643     5.8672    -0.8667 H       
  48 H48           -1.5475     5.8742     0.8725 H       
  49 H49            4.0750    -8.5264   -11.4060 H       
  50 H50           -1.2853     8.1361     1.0681 H       
  51 H51            0.2874     8.0262     0.2281 H       
  52 H52           -1.9121     9.3342    -0.8336 H       
  53 H53           -0.6402     8.5792    -1.8446 H       
  54 H54           -3.3424     7.3994    -0.9947 H       
  55 H55           -2.6188     7.4576    -2.6359 H       
  56 H56           -0.9636     5.7973    -2.0858 H       
  57 H57           -2.3937     5.1913    -1.1928 H       
  58 H58            3.5256    -9.2984   -13.4858 H       
  59 H59            1.8551    -8.7057   -13.2642 H       
  60 H60            3.5953    -7.6685   -15.1543 H       
  61 H61            2.2789    -6.7109   -14.4061 H       
  62 H62            5.2369    -6.8310   -13.5991 H       
  63 H63            4.2130    -5.3816   -13.8667 H       
  64 H64            2.9553    -5.7608   -11.8485 H       
  65 H65            4.6027    -6.2535   -11.3453 H       
@<TRIPOS>BOND
   1    1    2 1
   2    1    3 2
   3    2    5 2
   4    3    4 1
   5    3    6 1
   6    4    5 1
   7    5    9 1
   8    6    7 am
   9    6   34 1
  10    7    8 2
  11    7   22 1
  12    9   10 1
  13    9   35 1
  14    9   36 1
  15   10   25 1
  16   10   37 1
  17   10   38 1
  18   11   12 1
  19   11   25 1
  20   11   39 1
  21   11   40 1
  22   12   13 1
  23   12   41 1
  24   12   42 1
  25   13   14 2
  26   13   15 1
  27   14   17 1
  28   15   16 1
  29   16   17 2
  30   16   18 1
  31   18   19 am
  32   18   43 1
  33   19   20 2
  34   19   21 1
  35   21   24 1
  36   21   44 1
  37   21   45 1
  38   22   23 1
  39   22   46 1
  40   22   47 1
  41   23   26 1
  42   23   29 1
  43   23   48 1
  44   24   30 1
  45   24   33 1
  46   24   49 1
  47   26   27 1
  48   26   50 1
  49   26   51 1
  50   27   28 1
  51   27   52 1
  52   27   53 1
  53   28   29 1
  54   28   54 1
  55   28   55 1
  56   29   56 1
  57   29   57 1
  58   30   31 1
  59   30   58 1
  60   30   59 1
  61   31   32 1
  62   31   60 1
  63   31   61 1
  64   32   33 1
  65   32   62 1
  66   32   63 1
  67   33   64 1
  68   33   65 1

#	End of record

