#	Name: ASD05430279
#	Creating user name:	WinNT
#	Creation time:	15. 06. 2019 21:00

#	Modifying user name:	WinNT
#	Modification time:	15. 06. 2019 21:00

#	Program:	/corina/corina34_cracker 3.40 0067  02.08.2006

@<TRIPOS>MOLECULE
ASD05430279
  76   81    0    0    0
SMALL
NO_CHARGES


@<TRIPOS>ATOM
   1 C1            -0.0512     1.5175     0.0279 C.ar    
   2 C2             0.0190     0.3325     0.7597 C.ar    
   3 C3            -1.1319    -0.2177     1.3091 C.ar    
   4 C4            -2.3485     0.4050     1.1341 C.ar    
   5 C5            -2.4266     1.5940     0.4018 C.ar    
   6 C6            -1.2672     2.1506    -0.1468 C.ar    
   7 C7            -4.8329     0.0100     0.0626 C.3     
   8 C8            -4.8523     1.5287     0.1346 C.2     
   9 C9            -3.7256     2.2606     0.2133 C.2     
  10 C10           -5.8635    -0.4342    -0.9825 C.3     
  11 C11           -7.2935    -0.0072    -0.6307 C.3     
  12 N12           -7.3066     1.4229    -0.3352 N.pl3   
  13 C13           -6.1974     2.1454     0.1114 C.2     
  14 N14           -6.5475     3.3303     0.4848 N.2     
  15 C15           -9.6782     1.8066     0.1128 C.ar    
  16 C16          -10.4362     2.5404     1.0060 C.ar    
  17 C17          -10.0915     0.5445    -0.2707 C.ar    
  18 C18          -11.2628     0.0161     0.2389 C.ar    
  19 C19          -12.0206     0.7497     1.1325 C.ar    
  20 C20          -11.6075     2.0120     1.5157 C.ar    
  21 N21            1.2539    -0.3051     0.9407 N.pl3   
  22 Si22         -13.6041     0.0363     1.8204 Si      
  23 C23            2.1562    -0.6076    -0.0284 C.2     
  24 C24            1.7818    -0.7360     2.1303 C.2     
  25 C25            2.9776    -1.2879     1.8491 C.2     
  26 N26            3.1807    -1.1960     0.5265 N.2     
  27 C27            3.9258    -1.8989     2.8485 C.3     
  28 O28            1.0773     2.0529    -0.5089 O.3     
  29 C29           -8.4045     2.3851    -0.4476 C.3     
  30 O30           -7.9531     3.4959     0.3552 O.3     
  31 C31           -8.6020     2.8115    -1.9037 C.3     
  32 C32            0.9315     3.2682    -1.2463 C.3     
  33 C33           -5.4629    -0.0662    -2.4123 C.3     
  34 S34           -6.3015    -1.5534    -3.0262 S.o2    
  35 C35           -5.7531    -1.9189    -1.3358 C.3     
  36 O36           -7.7096    -1.3896    -3.1237 O.2     
  37 O37           -5.5448    -2.2441    -4.0108 O.2     
  38 C38          -13.2334    -0.9029     3.3860 C.3     
  39 C39          -14.7974     1.4177     2.1925 C.3     
  40 C40          -14.3606    -1.1175     0.5685 C.3     
  41 H41           -1.0732    -1.1359     1.8745 H       
  42 H42           -3.2419    -0.0252     1.5622 H       
  43 H43           -1.3230     3.0688    -0.7127 H       
  44 H44           -3.8404    -0.3314    -0.2316 H       
  45 H45           -5.0925    -0.4074     1.0355 H       
  46 H46           -3.7744     3.3368     0.1382 H       
  47 H47           -7.9526    -0.2110    -1.4746 H       
  48 H48           -7.6352    -0.5628     0.2425 H       
  49 H49          -10.1131     3.5263     1.3060 H       
  50 H50           -9.4995    -0.0287    -0.9689 H       
  51 H51          -11.5861    -0.9697    -0.0612 H       
  52 H52          -12.1994     2.5851     2.2142 H       
  53 H53            2.0446    -0.3968    -1.0818 H       
  54 H54            1.3265    -0.6489     3.1057 H       
  55 H55            3.7022    -2.9599     2.9598 H       
  56 H56            4.9507    -1.7784     2.4976 H       
  57 H57            3.8103    -1.4003     3.8108 H       
  58 H58           -8.8366     1.9365    -2.5099 H       
  59 H59           -9.4225     3.5264    -1.9648 H       
  60 H60           -7.6876     3.2752    -2.2737 H       
  61 H61            1.9052     3.5861    -1.6190 H       
  62 H62            0.2566     3.1047    -2.0865 H       
  63 H63            0.5214     4.0408    -0.5960 H       
  64 H64           -5.9214     0.8591    -2.7611 H       
  65 H65           -4.3851    -0.0847    -2.5735 H       
  66 H66           -4.7314    -2.2957    -1.2888 H       
  67 H67           -6.4546    -2.5441    -0.7834 H       
  68 H68          -12.7908    -0.2278     4.1185 H       
  69 H69          -14.1574    -1.3192     3.7874 H       
  70 H70          -12.5352    -1.7111     3.1683 H       
  71 H71          -15.0143     1.9671     1.2765 H       
  72 H72          -15.7214     1.0014     2.5939 H       
  73 H73          -14.3548     2.0927     2.9250 H       
  74 H74          -13.6624    -1.9257     0.3507 H       
  75 H75          -15.2846    -1.5338     0.9698 H       
  76 H76          -14.5775    -0.5680    -0.3476 H       
@<TRIPOS>BOND
   1    1    2 ar
   2    1   28 1
   3    1    6 ar
   4    2    3 ar
   5    2   21 1
   6    3    4 ar
   7    3   41 1
   8    4    5 ar
   9    4   42 1
  10    5    6 ar
  11    5    9 1
  12    6   43 1
  13    7    8 1
  14    7   10 1
  15    7   44 1
  16    7   45 1
  17    8    9 2
  18    8   13 1
  19    9   46 1
  20   10   11 1
  21   10   33 1
  22   10   35 1
  23   11   12 1
  24   11   47 1
  25   11   48 1
  26   12   13 1
  27   12   29 1
  28   13   14 2
  29   14   30 1
  30   15   16 ar
  31   15   17 ar
  32   15   29 1
  33   16   20 ar
  34   16   49 1
  35   17   18 ar
  36   17   50 1
  37   18   19 ar
  38   18   51 1
  39   19   20 ar
  40   19   22 1
  41   20   52 1
  42   21   23 1
  43   21   24 1
  44   22   38 1
  45   22   39 1
  46   22   40 1
  47   23   26 2
  48   23   53 1
  49   24   25 2
  50   24   54 1
  51   25   26 1
  52   25   27 1
  53   27   55 1
  54   27   56 1
  55   27   57 1
  56   28   32 1
  57   29   30 1
  58   29   31 1
  59   31   58 1
  60   31   59 1
  61   31   60 1
  62   32   61 1
  63   32   62 1
  64   32   63 1
  65   33   34 1
  66   33   64 1
  67   33   65 1
  68   34   35 1
  69   34   36 2
  70   34   37 2
  71   35   66 1
  72   35   67 1
  73   38   68 1
  74   38   69 1
  75   38   70 1
  76   39   71 1
  77   39   72 1
  78   39   73 1
  79   40   74 1
  80   40   75 1
  81   40   76 1

#	End of record

