#	Name: ASD01910274
#	Creating user name:	WinNT
#	Creation time:	15. 06. 2019 19:55

#	Modifying user name:	WinNT
#	Modification time:	15. 06. 2019 19:55

#	Program:	/corina/corina34_cracker 3.40 0067  02.08.2006

@<TRIPOS>MOLECULE
ASD01910274
  41   44    0    0    0
SMALL
NO_CHARGES


@<TRIPOS>ATOM
   1 C1            -0.0155     1.4673     0.0365 C.2     
   2 C2             0.0021    -0.0041     0.0020 C.2     
   3 O3            -1.0401    -0.6267     0.0781 O.2     
   4 N4             1.1729    -0.6615    -0.1139 N.am    
   5 C5             1.2218    -2.1266    -0.0141 C.3     
   6 C6             1.9282    -2.6820    -1.2548 C.3     
   7 C7             3.2984    -2.0156    -1.3980 C.3     
   8 C8             3.1173    -0.5069    -1.5801 C.3     
   9 C9             2.4237     0.0728    -0.3487 C.3     
  10 N10            2.7363    -5.9982    -0.3122 N.2     
  11 C11            2.0359    -6.2725    -1.3820 C.2     
  12 N12            1.6245    -5.0943    -1.9026 N.2     
  13 C13            2.1060    -4.1712    -1.1079 C.2     
  14 O14            2.7852    -4.7983    -0.1424 O.3     
  15 C15            1.7469    -7.6236    -1.9232 C.ar    
  16 C16            2.2395    -8.7554    -1.2765 C.ar    
  17 C17            1.9684   -10.0097    -1.7831 C.ar    
  18 C18            1.2080   -10.1449    -2.9335 C.ar    
  19 C19            0.7162    -9.0221    -3.5797 C.ar    
  20 C20            0.9773    -7.7644    -3.0764 C.ar    
  21 F21            0.9456   -11.3750    -3.4268 F       
  22 C22           -1.0152     2.2181    -0.4989 C.2     
  23 S23           -0.7092     3.8803    -0.2780 S.3     
  24 C24            0.8028     3.5679     0.5564 C.2     
  25 C25            1.0241     2.2620     0.6478 C.2     
  26 H26            1.7748    -2.4136     0.8803 H       
  27 H27            0.2080    -2.5234     0.0375 H       
  28 H28            1.3274    -2.4724    -2.1398 H       
  29 H29            3.8897    -2.2048    -0.5020 H       
  30 H30            3.8133    -2.4269    -2.2662 H       
  31 H31            4.0923    -0.0359    -1.7054 H       
  32 H32            2.5054    -0.3178    -2.4621 H       
  33 H33            2.2040     1.1273    -0.5155 H       
  34 H34            3.0726    -0.0343     0.5206 H       
  35 H35            2.8329    -8.6509    -0.3802 H       
  36 H36            2.3498   -10.8874    -1.2825 H       
  37 H37            0.1242    -9.1319    -4.4763 H       
  38 H38            0.5936    -6.8898    -3.5807 H       
  39 H39           -1.8851     1.8156    -0.9965 H       
  40 H40            1.4597     4.3317     0.9455 H       
  41 H41            1.8959     1.8376     1.1236 H       
@<TRIPOS>BOND
   1    1    2 1
   2    1   22 2
   3    1   25 1
   4    2    3 2
   5    2    4 am
   6    4    5 1
   7    4    9 1
   8    5    6 1
   9    5   26 1
  10    5   27 1
  11    6    7 1
  12    6   13 1
  13    6   28 1
  14    7    8 1
  15    7   29 1
  16    7   30 1
  17    8    9 1
  18    8   31 1
  19    8   32 1
  20    9   33 1
  21    9   34 1
  22   10   11 2
  23   10   14 1
  24   11   12 1
  25   11   15 1
  26   12   13 2
  27   13   14 1
  28   15   16 ar
  29   15   20 ar
  30   16   17 ar
  31   16   35 1
  32   17   18 ar
  33   17   36 1
  34   18   19 ar
  35   18   21 1
  36   19   20 ar
  37   19   37 1
  38   20   38 1
  39   22   23 1
  40   22   39 1
  41   23   24 1
  42   24   25 2
  43   24   40 1
  44   25   41 1

#	End of record

