#	Name: ASD08178161
#	Creating user name:	WinNT
#	Creation time:	15. 06. 2019 21:18

#	Modifying user name:	WinNT
#	Modification time:	15. 06. 2019 21:18

#	Program:	/corina/corina34_cracker 3.40 0067  02.08.2006

@<TRIPOS>MOLECULE
ASD08178161
  62   65    0    0    0
SMALL
NO_CHARGES


@<TRIPOS>ATOM
   1 C1            -0.0155     1.2947     0.0092 C.2     
   2 N2             0.0021    -0.0041     0.0020 N.2     
   3 N3            -1.1080    -0.6053     0.0094 N.2     
   4 C4            -2.1692     0.1372     0.0235 C.2     
   5 S5            -1.6454     1.8216     0.0350 S.3     
   6 C6            -3.5951    -0.3504     0.0340 C.3     
   7 C7            -7.8948    -1.8612     4.9167 C.2     
   8 N8            -8.3893    -0.9312     5.6705 N.2     
   9 N9            -8.5752    -1.2266     6.8837 N.2     
  10 C10           -8.2576    -2.4261     7.2678 C.2     
  11 S11           -7.6527    -3.2923     5.9192 S.3     
  12 N12           -8.3917    -2.9262     8.5585 N.am    
  13 C13           -8.8891    -2.1432     9.5363 C.2     
  14 C14           -9.0344    -2.6850    10.9350 C.3     
  15 O15           -9.2197    -1.0025     9.2905 O.2     
  16 C16           -9.6092    -1.6176    11.8300 C.ar    
  17 C17          -10.9778    -1.5054    11.9791 C.ar    
  18 C18          -11.5064    -0.5226    12.8037 C.ar    
  19 C19          -10.6585     0.3449    13.4764 C.ar    
  20 C20           -9.2902     0.2286    13.3239 C.ar    
  21 C21           -8.7658    -0.7548    12.5059 C.ar    
  22 N22            1.1034     2.1206     0.0029 N.am    
  23 C23            2.3386     1.5818    -0.0123 C.2     
  24 O24            2.4745     0.3766    -0.0205 O.2     
  25 C25            3.5511     2.4767    -0.0190 C.3     
  26 C26            4.7989     1.6319    -0.0361 C.ar    
  27 C27            5.7410     1.8253    -1.0283 C.ar    
  28 C28            6.8858     1.0427    -1.0350 C.ar    
  29 C29            7.0402     0.0910    -0.0389 C.ar    
  30 C30            6.0550    -0.0453     0.9210 C.ar    
  31 N31            4.9817     0.7203     0.8992 N.ar    
  32 C32           -4.0644    -0.5229     1.4800 C.3     
  33 S33           -5.7808    -1.1098     1.4927 S.3     
  34 C34           -6.1506    -1.2511     3.2630 C.3     
  35 C35           -7.5875    -1.7438     3.4461 C.3     
  36 O36          -12.8526    -0.4099    12.9517 O.3     
  37 C37          -13.3258     0.6247    13.8164 C.3     
  38 H38           -4.2315     0.3769    -0.4702 H       
  39 H39           -3.6557    -1.3073    -0.4843 H       
  40 H40           -8.1272    -3.8385     8.7551 H       
  41 H41           -9.7012    -3.5472    10.9232 H       
  42 H42           -8.0569    -2.9869    11.3110 H       
  43 H43          -11.6359    -2.1818    11.4540 H       
  44 H44          -11.0675     1.1109    14.1186 H       
  45 H45           -8.6296     0.9038    13.8475 H       
  46 H46           -7.6960    -0.8441    12.3879 H       
  47 H47            0.9948     3.0845     0.0095 H       
  48 H48            3.5296     3.1110    -0.9053 H       
  49 H49            3.5470     3.1008     0.8746 H       
  50 H50            5.5875     2.5763    -1.7892 H       
  51 H51            7.6389     1.1714    -1.7983 H       
  52 H52            7.9190    -0.5363    -0.0135 H       
  53 H53            6.1676    -0.7846     1.7001 H       
  54 H54           -3.4280    -1.2502     1.9842 H       
  55 H55           -4.0038     0.4340     1.9984 H       
  56 H56           -5.4621    -1.9601     3.7226 H       
  57 H57           -6.0378    -0.2759     3.7367 H       
  58 H58           -7.7004    -2.7190     2.9723 H       
  59 H59           -8.2761    -1.0348     2.9865 H       
  60 H60          -12.9330     0.4668    14.8208 H       
  61 H61          -12.9902     1.5922    13.4429 H       
  62 H62          -14.4153     0.6043    13.8450 H       
@<TRIPOS>BOND
   1    1    2 2
   2    1   22 1
   3    1    5 1
   4    2    3 1
   5    3    4 2
   6    4    5 1
   7    4    6 1
   8    6   32 1
   9    6   38 1
  10    6   39 1
  11    7    8 2
  12    7   35 1
  13    7   11 1
  14    8    9 1
  15    9   10 2
  16   10   11 1
  17   10   12 1
  18   12   13 am
  19   12   40 1
  20   13   14 1
  21   13   15 2
  22   14   16 1
  23   14   41 1
  24   14   42 1
  25   16   17 ar
  26   16   21 ar
  27   17   18 ar
  28   17   43 1
  29   18   19 ar
  30   18   36 1
  31   19   20 ar
  32   19   44 1
  33   20   21 ar
  34   20   45 1
  35   21   46 1
  36   22   23 am
  37   22   47 1
  38   23   24 2
  39   23   25 1
  40   25   26 1
  41   25   48 1
  42   25   49 1
  43   26   27 ar
  44   26   31 ar
  45   27   28 ar
  46   27   50 1
  47   28   29 ar
  48   28   51 1
  49   29   30 ar
  50   29   52 1
  51   30   31 ar
  52   30   53 1
  53   32   33 1
  54   32   54 1
  55   32   55 1
  56   33   34 1
  57   34   35 1
  58   34   56 1
  59   34   57 1
  60   35   58 1
  61   35   59 1
  62   36   37 1
  63   37   60 1
  64   37   61 1
  65   37   62 1

#	End of record

