#	Name: ASD02500182
#	Creating user name:	WinNT
#	Creation time:	15. 06. 2019 20:22

#	Modifying user name:	WinNT
#	Modification time:	15. 06. 2019 20:22

#	Program:	/corina/corina34_cracker 3.40 0067  02.08.2006

@<TRIPOS>MOLECULE
ASD02500182
  62   66    0    0    0
SMALL
NO_CHARGES


@<TRIPOS>ATOM
   1 N1            -3.0128     5.5635    -0.6364 N.ar    
   2 C2            -4.1083     6.1915    -0.9881 C.ar    
   3 C3            -5.2923     6.0617    -0.2650 C.ar    
   4 C4            -5.3308     5.2627     0.8420 C.ar    
   5 C5            -4.1525     4.5895     1.2165 C.ar    
   6 C6            -4.1154     3.7518     2.3424 C.ar    
   7 C7            -2.9559     3.1183     2.6720 C.ar    
   8 C8            -1.8047     3.2908     1.9066 C.ar    
   9 C9            -1.8051     4.0954     0.8089 C.ar    
  10 C10           -2.9827     4.7664     0.4364 C.ar    
  11 S11           -0.3347     4.2961    -0.1410 S.o2    
  12 O12           -0.1029     5.6952    -0.2309 O.2     
  13 O13            0.6152     3.3837     0.3923 O.2     
  14 N14           -0.6694     3.7779    -1.6778 N.am    
  15 C15           -0.9322     2.4334    -1.9163 C.ar    
  16 C16           -0.5002     1.8404    -3.0997 C.ar    
  17 C17           -0.7587     0.5103    -3.3386 C.ar    
  18 C18           -1.4560    -0.2459    -2.3917 C.ar    
  19 C19           -1.8884     0.3524    -1.2047 C.ar    
  20 C20           -1.6217     1.6819    -0.9691 C.ar    
  21 C21            0.2510     2.6563    -4.1200 C.3     
  22 C22           -1.7353    -1.6721    -2.6450 C.2     
  23 O23           -2.1294    -2.0296    -3.7383 O.2     
  24 N24           -1.5536    -2.5788    -1.6645 N.am    
  25 C25           -1.6911    -4.0159    -1.9398 C.3     
  26 C26           -0.3997    -4.7230    -1.5099 C.3     
  27 N27           -0.0601    -4.2923    -0.1464 N.am    
  28 C28            0.0773    -2.8553     0.1289 C.3     
  29 C29           -1.2085    -2.1485    -0.3023 C.3     
  30 C30            0.6638    -4.7740     2.1439 C.ar    
  31 C31            0.7133    -5.6839     3.2014 C.ar    
  32 C32            1.2308    -5.2697     4.4223 C.ar    
  33 C33            1.6785    -3.9645     4.5409 C.ar    
  34 C34            1.5985    -3.1157     3.4478 C.ar    
  35 N35            1.1046    -3.5316     2.3027 N.ar    
  36 C36            0.1215    -5.1991     0.8340 C.2     
  37 O37           -0.1599    -6.3658     0.6426 O.2     
  38 F38            0.2645    -6.9479     3.0401 F       
  39 H39           -4.0927     6.8267    -1.8614 H       
  40 H40           -6.1787     6.5926    -0.5795 H       
  41 H41           -6.2398     5.1509     1.4144 H       
  42 H42           -5.0013     3.6108     2.9439 H       
  43 H43           -2.9283     2.4741     3.5384 H       
  44 H44           -0.8972     2.7779     2.1891 H       
  45 H45           -0.6820     4.4121    -2.4116 H       
  46 H46           -0.4236     0.0510    -4.2569 H       
  47 H47           -2.4272    -0.2292    -0.4713 H       
  48 H48           -1.9513     2.1435    -0.0500 H       
  49 H49            1.3200     2.5998    -3.9149 H       
  50 H50            0.0511     2.2643    -5.1173 H       
  51 H51           -0.0749     3.6951    -4.0659 H       
  52 H52           -2.5331    -4.4175    -1.3761 H       
  53 H53           -1.8548    -4.1700    -3.0064 H       
  54 H54           -0.5510    -5.8023    -1.5257 H       
  55 H55            0.4083    -4.4544    -2.1903 H       
  56 H56            0.2411    -2.7012     1.1954 H       
  57 H57            0.9194    -2.4537    -0.4348 H       
  58 H58           -1.0537    -1.0696    -0.2877 H       
  59 H59           -2.0154    -2.4141     0.3807 H       
  60 H60            1.2823    -5.9497     5.2598 H       
  61 H61            2.0860    -3.6111     5.4766 H       
  62 H62            1.9468    -2.0974     3.5384 H       
@<TRIPOS>BOND
   1    1    2 ar
   2    1   10 ar
   3    2    3 ar
   4    2   39 1
   5    3    4 ar
   6    3   40 1
   7    4    5 ar
   8    4   41 1
   9    5    6 ar
  10    5   10 ar
  11    6    7 ar
  12    6   42 1
  13    7    8 ar
  14    7   43 1
  15    8    9 ar
  16    8   44 1
  17    9   10 ar
  18    9   11 1
  19   11   12 2
  20   11   13 2
  21   11   14 am
  22   14   15 1
  23   14   45 1
  24   15   16 ar
  25   15   20 ar
  26   16   17 ar
  27   16   21 1
  28   17   18 ar
  29   17   46 1
  30   18   19 ar
  31   18   22 1
  32   19   20 ar
  33   19   47 1
  34   20   48 1
  35   21   49 1
  36   21   50 1
  37   21   51 1
  38   22   23 2
  39   22   24 am
  40   24   25 1
  41   24   29 1
  42   25   26 1
  43   25   52 1
  44   25   53 1
  45   26   27 1
  46   26   54 1
  47   26   55 1
  48   27   28 1
  49   27   36 am
  50   28   29 1
  51   28   56 1
  52   28   57 1
  53   29   58 1
  54   29   59 1
  55   30   31 ar
  56   30   35 ar
  57   30   36 1
  58   31   32 ar
  59   31   38 1
  60   32   33 ar
  61   32   60 1
  62   33   34 ar
  63   33   61 1
  64   34   35 ar
  65   34   62 1
  66   36   37 2

#	End of record

