#	Name: ASD01810444
#	Creating user name:	WinNT
#	Creation time:	15. 06. 2019 19:24

#	Modifying user name:	WinNT
#	Modification time:	15. 06. 2019 19:24

#	Program:	/corina/corina34_cracker 3.40 0067  02.08.2006

@<TRIPOS>MOLECULE
ASD01810444
  72   77    0    0    0
SMALL
NO_CHARGES


@<TRIPOS>ATOM
   1 C1            -0.1278     1.5390    -0.1842 C.ar    
   2 C2             0.0957     0.1708    -0.0192 C.ar    
   3 C3            -0.9634    -0.6801     0.2292 C.ar    
   4 C4            -2.2490    -0.1849     0.3161 C.ar    
   5 C5            -2.4866     1.1819     0.1530 C.ar    
   6 C6            -1.4219     2.0464    -0.0920 C.ar    
   7 C7             1.0079     2.4488    -0.4502 C.2     
   8 N8             2.2834     2.1215    -0.4091 N.2     
   9 C9             1.4958    -0.3789    -0.1128 C.3     
  10 C10           -3.8643     1.7109     0.2459 C.2     
  11 N11           -4.3327     2.5418    -0.7063 N.am    
  12 O12           -4.5743     1.3963     1.1809 O.2     
  13 C13           -5.6536     3.1701    -0.5677 C.3     
  14 C14           -6.4751     2.8738    -1.8264 C.3     
  15 C15           -5.6907     3.3252    -3.0606 C.3     
  16 C16           -4.3772     2.5443    -3.1461 C.3     
  17 C17           -3.5297     2.8413    -1.8997 C.3     
  18 C18           -6.5101     3.0664    -4.2986 C.ar    
  19 C19           -6.8628     4.1197    -5.1235 C.ar    
  20 C20           -7.6123     3.8899    -6.2586 C.ar    
  21 C21           -8.0151     2.5907    -6.5741 C.ar    
  22 C22           -7.6557     1.5325    -5.7371 C.ar    
  23 C23           -6.9014     1.7759    -4.6080 C.ar    
  24 C24           -8.7938     2.3448    -7.7505 C.1     
  25 N25           -9.4115     2.1498    -8.6837 N.1     
  26 C26            2.0371    -0.9165     1.2224 C.3     
  27 C27            2.6563    -2.0706     0.4165 C.3     
  28 C28            1.5561    -1.8259    -0.6297 C.3     
  29 C29            3.0176     3.1909    -0.7038 C.2     
  30 C30            2.1819     4.2315    -0.9371 C.2     
  31 N31            0.9118     3.7707    -0.7862 N.pl3   
  32 C32           -3.3986    -1.1208     0.5869 C.3     
  33 C33            4.5204     3.3094    -0.7888 C.3     
  34 C34            4.8488     4.6063    -1.5412 C.3     
  35 N35            4.0833     5.7201    -0.9643 N.3     
  36 C36            2.6517     5.6173    -1.2960 C.3     
  37 C37            4.6315     7.0137    -1.3934 C.3     
  38 H38           -0.7850    -1.7377     0.3557 H       
  39 H39           -1.6001     3.1040    -0.2189 H       
  40 H40            2.1827     0.2971    -0.6220 H       
  41 H41           -6.1627     2.7618     0.3053 H       
  42 H42           -5.5355     4.2477    -0.4537 H       
  43 H43           -6.6694     1.8032    -1.8903 H       
  44 H44           -7.4209     3.4135    -1.7790 H       
  45 H45           -5.4752     4.3909    -2.9842 H       
  46 H46           -4.5913     1.4768    -3.1976 H       
  47 H47           -3.8299     2.8496    -4.0379 H       
  48 H48           -3.2393     3.8919    -1.8970 H       
  49 H49           -2.6385     2.2137    -1.9058 H       
  50 H50           -6.5508     5.1241    -4.8781 H       
  51 H51           -7.8872     4.7130    -6.9015 H       
  52 H52           -7.9643     0.5252    -5.9751 H       
  53 H53           -6.6227     0.9583    -3.9597 H       
  54 H54            2.7754    -0.2641     1.6887 H       
  55 H55            1.2566    -1.2358     1.9131 H       
  56 H56            3.6611    -1.8582     0.0513 H       
  57 H57            2.5805    -3.0387     0.9116 H       
  58 H58            0.6442    -2.3938    -0.4454 H       
  59 H59            1.9062    -1.9077    -1.6587 H       
  60 H60            0.0946     4.2827    -0.8911 H       
  61 H61           -3.5089    -1.2591     1.6624 H       
  62 H62           -4.3162    -0.6968     0.1791 H       
  63 H63           -3.2023    -2.0836     0.1150 H       
  64 H64            4.9448     3.3474     0.2145 H       
  65 H65            4.9278     2.4555    -1.3302 H       
  66 H66            5.9150     4.8158    -1.4548 H       
  67 H67            4.5862     4.4920    -2.5929 H       
  68 H68            2.5084     5.7890    -2.3628 H       
  69 H69            2.0883     6.3556    -0.7254 H       
  70 H70            4.5868     7.0848    -2.4801 H       
  71 H71            4.0464     7.8206    -0.9521 H       
  72 H72            5.6680     7.0956    -1.0662 H       
@<TRIPOS>BOND
   1    1    2 ar
   2    1    7 1
   3    1    6 ar
   4    2    3 ar
   5    2    9 1
   6    3    4 ar
   7    3   38 1
   8    4    5 ar
   9    4   32 1
  10    5    6 ar
  11    5   10 1
  12    6   39 1
  13    7    8 2
  14    7   31 1
  15    8   29 1
  16    9   26 1
  17    9   28 1
  18    9   40 1
  19   10   11 am
  20   10   12 2
  21   11   13 1
  22   11   17 1
  23   13   14 1
  24   13   41 1
  25   13   42 1
  26   14   15 1
  27   14   43 1
  28   14   44 1
  29   15   16 1
  30   15   18 1
  31   15   45 1
  32   16   17 1
  33   16   46 1
  34   16   47 1
  35   17   48 1
  36   17   49 1
  37   18   19 ar
  38   18   23 ar
  39   19   20 ar
  40   19   50 1
  41   20   21 ar
  42   20   51 1
  43   21   22 ar
  44   21   24 1
  45   22   23 ar
  46   22   52 1
  47   23   53 1
  48   24   25 3
  49   26   27 1
  50   26   54 1
  51   26   55 1
  52   27   28 1
  53   27   56 1
  54   27   57 1
  55   28   58 1
  56   28   59 1
  57   29   30 2
  58   29   33 1
  59   30   31 1
  60   30   36 1
  61   31   60 1
  62   32   61 1
  63   32   62 1
  64   32   63 1
  65   33   34 1
  66   33   64 1
  67   33   65 1
  68   34   35 1
  69   34   66 1
  70   34   67 1
  71   35   36 1
  72   35   37 1
  73   36   68 1
  74   36   69 1
  75   37   70 1
  76   37   71 1
  77   37   72 1

#	End of record

