#	Name: ASD01885862
#	Creating user name:	WinNT
#	Creation time:	15. 06. 2019 19:50

#	Modifying user name:	WinNT
#	Modification time:	15. 06. 2019 19:50

#	Program:	/corina/corina34_cracker 3.40 0067  02.08.2006

@<TRIPOS>MOLECULE
ASD01885862
  53   57    0    0    0
SMALL
NO_CHARGES


@<TRIPOS>ATOM
   1 C1            -0.0170     1.4035     0.0098 C.ar    
   2 C2             1.2135     2.1078     0.0018 C.ar    
   3 C3             1.1956     3.5255     0.0097 C.ar    
   4 C4            -0.0394     4.1598     0.0249 C.ar    
   5 C5            -1.2085     3.3917     0.0319 C.ar    
   6 N6            -1.1706     2.0724     0.0299 N.ar    
   7 C7             0.0021    -0.0041     0.0020 C.ar    
   8 C8             1.1926    -0.6630    -0.0129 C.ar    
   9 C9             2.3992     0.0333    -0.0203 C.ar    
  10 C10            2.4198     1.3961    -0.0132 C.ar    
  11 C11            2.4545     4.3052     0.0024 C.2     
  12 C12           -2.5234     4.0771     0.0481 C.2     
  13 N13           -3.6605     3.3535     0.0551 N.am    
  14 O14           -2.5758     5.2909     0.0552 O.2     
  15 C15            1.2060    -2.1699    -0.0211 C.3     
  16 C16            1.1968    -2.6646    -1.4446 C.ar    
  17 C17            2.3836    -2.8869    -2.1265 C.ar    
  18 C18            2.3360    -3.3412    -3.4306 C.ar    
  19 N19            1.1803    -3.5623    -4.0262 N.ar    
  20 C20            0.0326    -3.3619    -3.4089 C.ar    
  21 C21            0.0018    -2.9137    -2.1016 C.ar    
  22 C22            3.6196    -3.5862    -4.1813 C.3     
  23 C23           -1.2605    -3.6300    -4.1349 C.3     
  24 F24           -0.9845    -4.1843    -5.3895 F       
  25 F25           -2.0365    -4.5247    -3.3903 F       
  26 F26           -1.9607    -2.4301    -4.2990 F       
  27 C27            3.5566     4.1181     0.8620 C.2     
  28 N28            4.4707     4.9956     0.5454 N.2     
  29 N29            3.9951     5.7715    -0.5184 N.pl3   
  30 C30            2.7634     5.3343    -0.8428 C.2     
  31 C31            4.7161     6.8675    -1.1706 C.3     
  32 C32            4.2673    -2.3905    -4.8823 C.3     
  33 C33            4.8989    -2.9677    -3.6139 C.3     
  34 H34           -0.0970     5.2382     0.0317 H       
  35 H35           -0.9245    -0.5588     0.0083 H       
  36 H36            3.3302    -0.5138    -0.0315 H       
  37 H37            3.3617     1.9246    -0.0197 H       
  38 H38           -3.6186     2.3844     0.0494 H       
  39 H39           -4.5206     3.8017     0.0657 H       
  40 H40            2.1040    -2.5280     0.4822 H       
  41 H41            0.3242    -2.5440     0.4992 H       
  42 H42            3.3332    -2.7070    -1.6444 H       
  43 H43           -0.9415    -2.7515    -1.6013 H       
  44 H44            3.7025    -4.5591    -4.6657 H       
  45 H45            3.6316     3.3787     1.6457 H       
  46 H46            2.1317     5.7290    -1.6248 H       
  47 H47            5.3025     6.4734    -2.0006 H       
  48 H48            4.0014     7.5998    -1.5461 H       
  49 H49            5.3807     7.3445    -0.4504 H       
  50 H50            4.7767    -2.5767    -5.8278 H       
  51 H51            3.7651    -1.4265    -4.8007 H       
  52 H52            4.8121    -2.3836    -2.6978 H       
  53 H53            5.8237    -3.5338    -3.7250 H       
@<TRIPOS>BOND
   1    1    7 ar
   2    1    2 ar
   3    1    6 ar
   4    2    3 ar
   5    2   10 ar
   6    3    4 ar
   7    3   11 1
   8    4    5 ar
   9    4   34 1
  10    5    6 ar
  11    5   12 1
  12    7    8 ar
  13    7   35 1
  14    8    9 ar
  15    8   15 1
  16    9   10 ar
  17    9   36 1
  18   10   37 1
  19   11   27 1
  20   11   30 2
  21   12   13 am
  22   12   14 2
  23   13   38 1
  24   13   39 1
  25   15   16 1
  26   15   40 1
  27   15   41 1
  28   16   17 ar
  29   16   21 ar
  30   17   18 ar
  31   17   42 1
  32   18   19 ar
  33   18   22 1
  34   19   20 ar
  35   20   21 ar
  36   20   23 1
  37   21   43 1
  38   22   32 1
  39   22   33 1
  40   22   44 1
  41   23   24 1
  42   23   25 1
  43   23   26 1
  44   27   28 2
  45   27   45 1
  46   28   29 1
  47   29   30 1
  48   29   31 1
  49   30   46 1
  50   31   47 1
  51   31   48 1
  52   31   49 1
  53   32   33 1
  54   32   50 1
  55   32   51 1
  56   33   52 1
  57   33   53 1

#	End of record

