#	Name: ASD00461016
#	Creating user name:	WinNT
#	Creation time:	15. 06. 2019 18:36

#	Modifying user name:	WinNT
#	Modification time:	15. 06. 2019 18:36

#	Program:	/corina/corina34_cracker 3.40 0067  02.08.2006

@<TRIPOS>MOLECULE
ASD00461016
  37   39    0    0    0
SMALL
NO_CHARGES


@<TRIPOS>ATOM
   1 C1            -0.0195     1.3547    -0.1055 C.ar    
   2 C2            -0.0002    -0.0067    -0.0784 C.ar    
   3 C3             1.1625     2.0812    -0.1385 C.ar    
   4 C4             1.2252    -0.7035    -0.0833 C.ar    
   5 C5             2.3739     1.4275    -0.1445 C.ar    
   6 N6             1.4608    -2.0292    -0.0603 N.2     
   7 C7             2.4132     0.0350    -0.1166 C.ar    
   8 C8             2.6789    -2.4199    -0.0713 C.2     
   9 S9             3.7595    -1.0998    -0.1146 S.3     
  10 C10            3.1061    -3.8649    -0.0478 C.3     
  11 O11            2.6079    -4.4897     1.1369 O.3     
  12 C12            2.5455    -4.5825    -1.2773 C.3     
  13 C13            4.6110    -3.9441    -0.0626 C.ar    
  14 C14            5.2846    -4.4909     1.0134 C.ar    
  15 C15            6.6650    -4.5639     1.0004 C.ar    
  16 C16            7.3721    -4.0895    -0.0898 C.ar    
  17 C17            6.6972    -3.5422    -1.1667 C.ar    
  18 C18            5.3170    -3.4750    -1.1549 C.ar    
  19 C19            1.0278    -4.3958    -1.3289 C.3     
  20 Cl20           9.1057    -4.1802    -0.1066 Cl      
  21 C21            4.5817    -2.8789    -2.3276 C.3     
  22 H22           -0.9659     1.8750    -0.1059 H       
  23 H23           -0.9297    -0.5561    -0.0526 H       
  24 H24            1.1319     3.1606    -0.1598 H       
  25 H25            3.2933     1.9936    -0.1709 H       
  26 H26            2.9230    -4.0856     1.9569 H       
  27 H27            2.9939    -4.1638    -2.1782 H       
  28 H28            2.7789    -5.6454    -1.2154 H       
  29 H29            4.7324    -4.8609     1.8646 H       
  30 H30            7.1912    -4.9908     1.8413 H       
  31 H31            7.2488    -3.1714    -2.0179 H       
  32 H32            0.5794    -4.8144    -0.4279 H       
  33 H33            0.7944    -3.3329    -1.3907 H       
  34 H34            0.6284    -4.9070    -2.2048 H       
  35 H35            4.4334    -3.6436    -3.0902 H       
  36 H36            3.6135    -2.5033    -1.9966 H       
  37 H37            5.1665    -2.0589    -2.7443 H       
@<TRIPOS>BOND
   1    1    2 ar
   2    1    3 ar
   3    1   22 1
   4    2    4 ar
   5    2   23 1
   6    3    5 ar
   7    3   24 1
   8    4    6 1
   9    4    7 ar
  10    5    7 ar
  11    5   25 1
  12    6    8 2
  13    7    9 1
  14    8   10 1
  15    8    9 1
  16   10   11 1
  17   10   12 1
  18   10   13 1
  19   11   26 1
  20   12   19 1
  21   12   27 1
  22   12   28 1
  23   13   14 ar
  24   13   18 ar
  25   14   15 ar
  26   14   29 1
  27   15   16 ar
  28   15   30 1
  29   16   17 ar
  30   16   20 1
  31   17   18 ar
  32   17   31 1
  33   18   21 1
  34   19   32 1
  35   19   33 1
  36   19   34 1
  37   21   35 1
  38   21   36 1
  39   21   37 1

#	End of record

