#	Name: ASD07330034
#	Creating user name:	WinNT
#	Creation time:	15. 06. 2019 21:11

#	Modifying user name:	WinNT
#	Modification time:	15. 06. 2019 21:11

#	Program:	/corina/corina34_cracker 3.40 0067  02.08.2006

@<TRIPOS>MOLECULE
ASD07330034
  96  102    0    0    0
SMALL
NO_CHARGES


@<TRIPOS>ATOM
   1 C1             0.3342     1.8517    -2.1838 C.3     
   2 C2             0.1657     0.3760    -2.5511 C.3     
   3 O3             0.7159    -0.4388    -1.5141 O.3     
   4 C4             0.6472    -1.7857    -1.6854 C.ar    
   5 C5             0.0669    -2.3102    -2.8313 C.ar    
   6 C6            -0.0037    -3.6780    -3.0056 C.ar    
   7 C7             0.5067    -4.5287    -2.0340 C.ar    
   8 C8             1.0878    -4.0031    -0.8876 C.ar    
   9 C9             1.1624    -2.6351    -0.7168 C.ar    
  10 N10            0.4350    -5.9175    -2.2102 N.am    
  11 C11           -0.3473    -6.6594    -1.3913 C.2     
  12 O12           -0.9952    -6.1452    -0.4982 O.2     
  13 C13           -0.3835    -8.1092    -1.6235 C.ar    
  14 C14           -1.1555    -8.9670    -0.8399 C.ar    
  15 C15           -1.1244   -10.3182    -1.1366 C.ar    
  16 C16           -0.3393   -10.7702    -2.1869 C.ar    
  17 N17            0.3834    -9.9461    -2.9157 N.ar    
  18 C18            0.3939    -8.6380    -2.6789 C.ar    
  19 N19            1.1372    -7.7883    -3.4295 N.2     
  20 C20            1.1466    -6.5089    -3.2052 C.2     
  21 C21            1.9962    -5.6350    -4.0916 C.3     
  22 C22            2.9463    -4.8030    -3.2278 C.3     
  23 N23            2.7755    -6.4758    -5.0038 N.am    
  24 C24            2.5201    -6.4247    -6.4455 C.3     
  25 C25            3.4081    -5.3542    -7.0830 C.3     
  26 C26            4.8775    -5.7648    -6.9538 C.3     
  27 C27            5.7566    -4.7211    -7.6465 C.3     
  28 N28            5.3797    -4.6237    -9.0624 N.3     
  29 C29            6.2931    -3.7328    -9.7903 C.3     
  30 C30            5.7409    -3.4624   -11.1662 C.ar    
  31 C31            6.0734    -4.2931   -12.2199 C.ar    
  32 C32            5.5669    -4.0451   -13.4819 C.ar    
  33 C33            4.7275    -2.9667   -13.6902 C.ar    
  34 C34            4.3943    -2.1365   -12.6363 C.ar    
  35 C35            4.8974    -2.3870   -11.3734 C.ar    
  36 C36            4.1761    -2.6958   -15.0663 C.3     
  37 N37            3.2324    -3.6555   -15.6449 N.2     
  38 N38            2.7237    -2.6021   -15.2336 N.2     
  39 C39            5.0750    -1.8926   -16.0085 C.3     
  40 F40            6.2781    -2.5794   -16.2035 F       
  41 F41            4.4294    -1.7244   -17.2382 F       
  42 F42            5.3394    -0.6395   -15.4454 F       
  43 C43            3.9863    -4.1850    -9.2120 C.3     
  44 C44            3.0543    -5.2128    -8.5661 C.3     
  45 C45            3.7273    -7.2963    -4.5167 C.2     
  46 O46            4.4169    -7.9432    -5.2762 O.2     
  47 C47            3.9347    -7.4099    -3.0284 C.3     
  48 C48            4.8957    -8.5341    -2.7394 C.ar    
  49 C49            4.4193    -9.8167    -2.5434 C.ar    
  50 C50            5.2998   -10.8488    -2.2788 C.ar    
  51 C51            6.6595   -10.5974    -2.2101 C.ar    
  52 F52            7.5211   -11.6054    -1.9520 F       
  53 C53            7.1357    -9.3120    -2.4067 C.ar    
  54 C54            6.2539    -8.2828    -2.6763 C.ar    
  55 C55            8.6154    -9.0366    -2.3319 C.3     
  56 F56            8.8490    -7.6767    -2.5628 F       
  57 F57            9.0905    -9.3824    -1.0623 F       
  58 F58            9.2805    -9.7952    -3.3012 F       
  59 H59           -0.1858     2.0548    -1.2477 H       
  60 H60            1.3940     2.0783    -2.0674 H       
  61 H61           -0.0855     2.4732    -2.9748 H       
  62 H62           -0.8941     0.1493    -2.6676 H       
  63 H63            0.6857     0.1729    -3.4873 H       
  64 H64           -0.3301    -1.6485    -3.5869 H       
  65 H65           -0.4560    -4.0862    -3.8973 H       
  66 H66            1.4845    -4.6642    -0.1314 H       
  67 H67            1.6183    -2.2261     0.1727 H       
  68 H68           -1.7580    -8.5886    -0.0274 H       
  69 H69           -1.7073   -11.0163    -0.5541 H       
  70 H70           -0.3201   -11.8262    -2.4125 H       
  71 H71            1.3541    -4.9702    -4.6694 H       
  72 H72            3.2492    -5.3847    -2.3572 H       
  73 H73            3.8276    -4.5359    -3.8109 H       
  74 H74            2.4388    -3.8958    -2.9000 H       
  75 H75            2.7450    -7.3947    -6.8889 H       
  76 H76            1.4726    -6.1793    -6.6204 H       
  77 H77            3.2494    -4.4013    -6.5782 H       
  78 H78            5.1470    -5.8257    -5.8994 H       
  79 H79            5.0266    -6.7365    -7.4248 H       
  80 H80            5.6173    -3.7526    -7.1662 H       
  81 H81            6.8025    -5.0178    -7.5687 H       
  82 H82            6.3929    -2.7927    -9.2477 H       
  83 H83            7.2705    -4.2073    -9.8778 H       
  84 H84            6.7291    -5.1357   -12.0571 H       
  85 H85            5.8272    -4.6937   -14.3053 H       
  86 H86            3.7388    -1.2938   -12.7991 H       
  87 H87            4.6341    -1.7406   -10.5492 H       
  88 H88            3.8553    -3.2190    -8.7243 H       
  89 H89            3.7464    -4.0924   -10.2712 H       
  90 H90            3.1748    -6.1757    -9.0624 H       
  91 H91            2.0212    -4.8791    -8.6636 H       
  92 H92            4.3440    -6.4748    -2.6461 H       
  93 H93            2.9803    -7.6140    -2.5431 H       
  94 H94            3.3585   -10.0125    -2.5966 H       
  95 H95            4.9273   -11.8508    -2.1253 H       
  96 H96            6.6254    -7.2810    -2.8338 H       
@<TRIPOS>BOND
   1    1    2 1
   2    1   59 1
   3    1   60 1
   4    1   61 1
   5    2    3 1
   6    2   62 1
   7    2   63 1
   8    3    4 1
   9    4    9 ar
  10    4    5 ar
  11    5    6 ar
  12    5   64 1
  13    6    7 ar
  14    6   65 1
  15    7    8 ar
  16    7   10 1
  17    8    9 ar
  18    8   66 1
  19    9   67 1
  20   10   20 1
  21   10   11 am
  22   11   12 2
  23   11   13 1
  24   13   18 ar
  25   13   14 ar
  26   14   15 ar
  27   14   68 1
  28   15   16 ar
  29   15   69 1
  30   16   17 ar
  31   16   70 1
  32   17   18 ar
  33   18   19 1
  34   19   20 2
  35   20   21 1
  36   21   22 1
  37   21   23 1
  38   21   71 1
  39   22   72 1
  40   22   73 1
  41   22   74 1
  42   23   24 1
  43   23   45 am
  44   24   25 1
  45   24   75 1
  46   24   76 1
  47   25   44 1
  48   25   26 1
  49   25   77 1
  50   26   27 1
  51   26   78 1
  52   26   79 1
  53   27   28 1
  54   27   80 1
  55   27   81 1
  56   28   29 1
  57   28   43 1
  58   29   30 1
  59   29   82 1
  60   29   83 1
  61   30   35 ar
  62   30   31 ar
  63   31   32 ar
  64   31   84 1
  65   32   33 ar
  66   32   85 1
  67   33   34 ar
  68   33   36 1
  69   34   35 ar
  70   34   86 1
  71   35   87 1
  72   36   38 1
  73   36   37 1
  74   36   39 1
  75   37   38 2
  76   39   40 1
  77   39   41 1
  78   39   42 1
  79   43   44 1
  80   43   88 1
  81   43   89 1
  82   44   90 1
  83   44   91 1
  84   45   46 2
  85   45   47 1
  86   47   48 1
  87   47   92 1
  88   47   93 1
  89   48   54 ar
  90   48   49 ar
  91   49   50 ar
  92   49   94 1
  93   50   51 ar
  94   50   95 1
  95   51   52 1
  96   51   53 ar
  97   53   54 ar
  98   53   55 1
  99   54   96 1
 100   55   56 1
 101   55   57 1
 102   55   58 1

#	End of record

