#	Name: ASD01811132
#	Creating user name:	WinNT
#	Creation time:	15. 06. 2019 19:26

#	Modifying user name:	WinNT
#	Modification time:	15. 06. 2019 19:26

#	Program:	/corina/corina34_cracker 3.40 0067  02.08.2006

@<TRIPOS>MOLECULE
ASD01811132
  50   54    0    0    0
SMALL
NO_CHARGES


@<TRIPOS>ATOM
   1 C1            -0.0164     1.3605     0.0095 C.2     
   2 C2             0.0021    -0.0041     0.0020 C.2     
   3 C3             1.2394    -0.6741    -0.0134 C.2     
   4 C4             2.4332     0.0760    -0.0208 C.2     
   5 N5             2.3893     1.4236    -0.0127 N.am    
   6 C6             3.5554     2.1300    -0.0196 C.2     
   7 C7             3.5461     3.4822    -0.0118 C.2     
   8 C8             2.3304     4.1791     0.0035 C.2     
   9 C9             1.1572     3.4829     0.0105 C.2     
  10 C10            1.1877     2.0784     0.0019 C.2     
  11 C11            1.2868    -2.1379    -0.0213 C.2     
  12 O12            0.2536    -2.7799    -0.0145 O.2     
  13 O13            2.4762    -2.7742    -0.0361 O.3     
  14 C14           -1.3318     2.0959     0.0198 C.3     
  15 C15           -3.2045     2.7327    -1.3728 C.3     
  16 N16           -1.8246     2.2370    -1.3569 N.3     
  17 C17           -0.9542     3.1287    -2.1399 C.3     
  18 C18           -1.2859     2.9517    -3.6219 C.3     
  19 C19           -2.7731     3.0721    -3.8342 C.ar    
  20 C20           -3.2420     3.2928    -5.1206 C.ar    
  21 C21           -4.5967     3.4064    -5.3592 C.ar    
  22 C22           -5.4912     3.2988    -4.3104 C.ar    
  23 C23           -5.0256     3.0799    -3.0297 C.ar    
  24 C24           -3.6642     2.9672    -2.7879 C.ar    
  25 C25           -4.1059     1.7178    -0.7181 C.2     
  26 C26           -5.1199     2.0043     0.0999 C.2     
  27 C27           -5.8092     0.9048     0.5816 C.2     
  28 C28           -5.3551    -0.2745     0.1548 C.2     
  29 S29           -3.9866    -0.0251    -0.9216 S.3     
  30 O30            3.5099    -0.4964    -0.0342 O.2     
  31 H31           -0.9220    -0.5631     0.0082 H       
  32 H32            4.4981     1.6032    -0.0310 H       
  33 H33            4.4787     4.0268    -0.0171 H       
  34 H34            2.3223     5.2591     0.0100 H       
  35 H35            0.2130     4.0070     0.0227 H       
  36 H36            2.4568    -3.7410    -0.0408 H       
  37 H37           -2.0569     1.5352     0.6096 H       
  38 H38           -1.1923     3.0838     0.4588 H       
  39 H39           -3.2575     3.6688    -0.8169 H       
  40 H40           -1.1308     4.1634    -1.8461 H       
  41 H41            0.0896     2.8682    -1.9645 H       
  42 H42           -0.7742     3.7201    -4.2015 H       
  43 H43           -0.9515     1.9684    -3.9527 H       
  44 H44           -2.5433     3.3767    -5.9399 H       
  45 H45           -4.9571     3.5792    -6.3625 H       
  46 H46           -6.5521     3.3862    -4.4929 H       
  47 H47           -5.7251     2.9961    -2.2111 H       
  48 H48           -5.3829     3.0173     0.3664 H       
  49 H49           -6.6508     0.9950     1.2524 H       
  50 H50           -5.7670    -1.2354     0.4258 H       
@<TRIPOS>BOND
   1    1    2 1
   2    1   10 2
   3    1   14 1
   4    2    3 2
   5    2   31 1
   6    3    4 1
   7    3   11 1
   8    4    5 am
   9    4   30 2
  10    5    6 1
  11    5   10 1
  12    6    7 2
  13    6   32 1
  14    7    8 1
  15    7   33 1
  16    8    9 2
  17    8   34 1
  18    9   10 1
  19    9   35 1
  20   11   12 2
  21   11   13 1
  22   13   36 1
  23   14   16 1
  24   14   37 1
  25   14   38 1
  26   15   16 1
  27   15   24 1
  28   15   25 1
  29   15   39 1
  30   16   17 1
  31   17   18 1
  32   17   40 1
  33   17   41 1
  34   18   19 1
  35   18   42 1
  36   18   43 1
  37   19   20 ar
  38   19   24 ar
  39   20   21 ar
  40   20   44 1
  41   21   22 ar
  42   21   45 1
  43   22   23 ar
  44   22   46 1
  45   23   24 ar
  46   23   47 1
  47   25   26 2
  48   25   29 1
  49   26   27 1
  50   26   48 1
  51   27   28 2
  52   27   49 1
  53   28   29 1
  54   28   50 1

#	End of record

