#	Name: ASD01151018
#	Creating user name:	WinNT
#	Creation time:	15. 06. 2019 19:05

#	Modifying user name:	WinNT
#	Modification time:	15. 06. 2019 19:05

#	Program:	/corina/corina34_cracker 3.40 0067  02.08.2006

@<TRIPOS>MOLECULE
ASD01151018
  57   59    0    0    0
SMALL
NO_CHARGES


@<TRIPOS>ATOM
   1 C1            -0.0015     1.4204     0.1746 C.2     
   2 C2             0.0693     0.0374     0.0868 C.2     
   3 N3            -1.1728    -0.4137    -0.1226 N.2     
   4 C4            -2.0081     0.5909    -0.1708 C.2     
   5 N5            -1.3409     1.7440     0.0114 N.pl3   
   6 C6            -3.4942     0.4738    -0.3915 C.3     
   7 C7            -1.9186     3.0902     0.0267 C.3     
   8 C8             1.0722     2.3171     0.3922 C.2     
   9 O9             0.8403     3.6453     0.4535 O.3     
  10 O10            2.2043     1.8904     0.5240 O.2     
  11 C11            1.9701     4.4916     0.6755 C.3     
  12 C12            2.9797     4.3025    -0.4584 C.3     
  13 N13            1.2191    -0.7368     0.1956 N.am    
  14 C14           -4.1882     0.2008     0.9445 C.3     
  15 C15           -2.0326     3.6040    -1.3854 C.ar    
  16 C16           -3.2277     3.4851    -2.0699 C.ar    
  17 C17           -3.3322     3.9563    -3.3652 C.ar    
  18 C18           -2.2417     4.5469    -3.9759 C.ar    
  19 C19           -1.0469     4.6666    -3.2912 C.ar    
  20 C20           -0.9436     4.1993    -1.9943 C.ar    
  21 C21            1.5141     5.9516     0.7141 C.3     
  22 C22            2.6263     4.1270     2.0087 C.3     
  23 C23            1.1409    -2.0782     0.0896 C.2     
  24 C24            2.3627    -2.9008     0.2052 C.ar    
  25 O25            0.0651    -2.6111    -0.1012 O.2     
  26 C26            2.2848    -4.2907     0.0958 C.ar    
  27 C27            3.4287    -5.0531     0.2041 C.ar    
  28 C28            4.6531    -4.4429     0.4210 C.ar    
  29 C29            4.7366    -3.0646     0.5308 C.ar    
  30 C30            3.6007    -2.2911     0.4185 C.ar    
  31 Cl31           6.0888    -5.4094     0.5562 Cl      
  32 H32           -3.8732     1.4042    -0.8143 H       
  33 H33           -3.6958    -0.3469    -1.0800 H       
  34 H34           -2.9085     3.0556     0.4817 H       
  35 H35           -1.2762     3.7548     0.6044 H       
  36 H36            2.5123     4.5623    -1.4082 H       
  37 H37            3.8415     4.9480    -0.2890 H       
  38 H38            3.3047     3.2624    -0.4859 H       
  39 H39            2.0776    -0.3116     0.3478 H       
  40 H40           -5.2686     0.2032     0.7999 H       
  41 H41           -3.8747    -0.7714     1.3248 H       
  42 H42           -3.9158     0.9762     1.6605 H       
  43 H43           -4.0796     3.0237    -1.5927 H       
  44 H44           -4.2657     3.8627    -3.9002 H       
  45 H45           -2.3232     4.9144    -4.9882 H       
  46 H46           -0.1948     5.1277    -3.7685 H       
  47 H47           -0.0101     4.2928    -1.4593 H       
  48 H48            0.7948     6.0863     1.5219 H       
  49 H49            2.3759     6.5971     0.8835 H       
  50 H50            1.0466     6.2114    -0.2357 H       
  51 H51            2.9512     3.0869     1.9813 H       
  52 H52            3.4881     4.7725     2.1781 H       
  53 H53            1.9071     4.2617     2.8166 H       
  54 H54            1.3306    -4.7676    -0.0730 H       
  55 H55            3.3697    -6.1282     0.1200 H       
  56 H56            5.6941    -2.5946     0.7006 H       
  57 H57            3.6670    -1.2166     0.5043 H       
@<TRIPOS>BOND
   1    1    2 2
   2    1    8 1
   3    1    5 1
   4    2    3 1
   5    2   13 1
   6    3    4 2
   7    4    5 1
   8    4    6 1
   9    5    7 1
  10    6   14 1
  11    6   32 1
  12    6   33 1
  13    7   15 1
  14    7   34 1
  15    7   35 1
  16    8    9 1
  17    8   10 2
  18    9   11 1
  19   11   12 1
  20   11   21 1
  21   11   22 1
  22   12   36 1
  23   12   37 1
  24   12   38 1
  25   13   23 am
  26   13   39 1
  27   14   40 1
  28   14   41 1
  29   14   42 1
  30   15   16 ar
  31   15   20 ar
  32   16   17 ar
  33   16   43 1
  34   17   18 ar
  35   17   44 1
  36   18   19 ar
  37   18   45 1
  38   19   20 ar
  39   19   46 1
  40   20   47 1
  41   21   48 1
  42   21   49 1
  43   21   50 1
  44   22   51 1
  45   22   52 1
  46   22   53 1
  47   23   24 1
  48   23   25 2
  49   24   26 ar
  50   24   30 ar
  51   26   27 ar
  52   26   54 1
  53   27   28 ar
  54   27   55 1
  55   28   29 ar
  56   28   31 1
  57   29   30 ar
  58   29   56 1
  59   30   57 1

#	End of record

