#	Name: ASD01940521
#	Creating user name:	WinNT
#	Creation time:	15. 06. 2019 20:12

#	Modifying user name:	WinNT
#	Modification time:	15. 06. 2019 20:12

#	Program:	/corina/corina34_cracker 3.40 0067  02.08.2006

@<TRIPOS>MOLECULE
ASD01940521
  52   54    0    0    0
SMALL
NO_CHARGES


@<TRIPOS>ATOM
   1 C1             0.0920     0.8228    -0.6205 C.ar    
   2 C2             0.2042    -0.5625    -0.6902 C.ar    
   3 C3             1.4429    -1.1759    -0.5683 C.ar    
   4 C4             2.5750    -0.4060    -0.3766 C.ar    
   5 C5             2.4602     0.9933    -0.3068 C.ar    
   6 C6             1.2123     1.6015    -0.4297 C.ar    
   7 O7             3.7987    -0.9716    -0.2533 O.3     
   8 C8             4.8952    -0.2226    -0.0669 C.2     
   9 N9             4.8579     1.1177     0.0092 N.am    
  10 C10            3.6868     1.7840    -0.1012 C.2     
  11 O11            3.6468     2.9975    -0.0339 O.2     
  12 O12            5.9692    -0.7808     0.0380 O.2     
  13 C13            6.1005     1.8662     0.2143 C.3     
  14 C14            6.7075     2.2078    -1.1220 C.ar    
  15 C15            7.7500     1.4489    -1.6216 C.ar    
  16 C16            8.3101     1.7592    -2.8471 C.ar    
  17 C17            7.8300     2.8289    -3.5778 C.ar    
  18 C18            6.7833     3.5936    -3.0808 C.ar    
  19 C19            6.2180     3.2765    -1.8503 C.ar    
  20 F20            5.1993     4.0178    -1.3625 F       
  21 N21            6.2952     4.6770    -3.8181 N.am    
  22 O22           -0.9069    -1.3197    -0.8785 O.3     
  23 S23            7.3329     5.5986    -4.7215 S.o2    
  24 N24            7.8810     4.6472    -5.9611 N.am    
  25 O25            6.5463     6.6208    -5.3178 O.2     
  26 O26            8.4566     5.8658    -3.8937 O.2     
  27 C27            6.9479     4.1658    -6.9827 C.3     
  28 C28           -1.4811    -1.2688    -2.0915 C.2     
  29 C29           -2.7377    -2.0549    -2.3640 C.3     
  30 O30           -0.9902    -0.5928    -2.9644 O.2     
  31 C31           -3.1806    -1.8233    -3.8101 C.3     
  32 C32           -4.4564    -2.6214    -4.0867 C.3     
  33 H33           -0.8767     1.2896    -0.7208 H       
  34 H34            1.5223    -2.2516    -0.6228 H       
  35 H35            1.1242     2.6765    -0.3764 H       
  36 H36            5.8855     2.7843     0.7611 H       
  37 H37            6.8008     1.2579     0.7867 H       
  38 H38            8.1278     0.6120    -1.0531 H       
  39 H39            9.1246     1.1645    -3.2337 H       
  40 H40            8.2688     3.0702    -4.5347 H       
  41 H41            5.3487     4.8887    -3.8003 H       
  42 H42            8.8199     4.4086    -6.0107 H       
  43 H43            7.4871     3.5596    -7.7106 H       
  44 H44            6.1721     3.5626    -6.5110 H       
  45 H45            6.4901     5.0170    -7.4867 H       
  46 H46           -2.5432    -3.1161    -2.2091 H       
  47 H47           -3.5255    -1.7271    -1.6858 H       
  48 H48           -3.3751    -0.7621    -3.9650 H       
  49 H49           -2.3928    -2.1511    -4.4883 H       
  50 H50           -5.2442    -2.2936    -3.4085 H       
  51 H51           -4.7719    -2.4564    -5.1169 H       
  52 H52           -4.2618    -3.6826    -3.9318 H       
@<TRIPOS>BOND
   1    1    2 ar
   2    1    6 ar
   3    1   33 1
   4    2    3 ar
   5    2   22 1
   6    3    4 ar
   7    3   34 1
   8    4    5 ar
   9    4    7 1
  10    5    6 ar
  11    5   10 1
  12    6   35 1
  13    7    8 1
  14    8    9 am
  15    8   12 2
  16    9   10 am
  17    9   13 1
  18   10   11 2
  19   13   14 1
  20   13   36 1
  21   13   37 1
  22   14   15 ar
  23   14   19 ar
  24   15   16 ar
  25   15   38 1
  26   16   17 ar
  27   16   39 1
  28   17   18 ar
  29   17   40 1
  30   18   19 ar
  31   18   21 1
  32   19   20 1
  33   21   23 am
  34   21   41 1
  35   22   28 1
  36   23   24 am
  37   23   25 2
  38   23   26 2
  39   24   27 1
  40   24   42 1
  41   27   43 1
  42   27   44 1
  43   27   45 1
  44   28   29 1
  45   28   30 2
  46   29   31 1
  47   29   46 1
  48   29   47 1
  49   31   32 1
  50   31   48 1
  51   31   49 1
  52   32   50 1
  53   32   51 1
  54   32   52 1

#	End of record

