#	Name: ASD01900671
#	Creating user name:	WinNT
#	Creation time:	15. 06. 2019 19:52

#	Modifying user name:	WinNT
#	Modification time:	15. 06. 2019 19:52

#	Program:	/corina/corina34_cracker 3.40 0067  02.08.2006

@<TRIPOS>MOLECULE
ASD01900671
  43   46    0    0    0
SMALL
NO_CHARGES


@<TRIPOS>ATOM
   1 C1            -0.0185     1.4163     0.1361 C.ar    
   2 C2            -0.0085     0.0184     0.1250 C.ar    
   3 C3             1.1978    -0.6774     0.0644 C.ar    
   4 C4             2.3948     0.0188     0.0146 C.ar    
   5 C5             2.3731     1.4217     0.0305 C.ar    
   6 O6             3.5698    -0.6432    -0.0561 O.3     
   7 C7             4.7417    -0.0327     0.1906 C.2     
   8 C8             4.8740     1.3141     0.2219 C.2     
   9 C9             3.6726     2.1384    -0.0105 C.2     
  10 C10            5.9349    -0.8664     0.4386 C.ar    
  11 N11            7.1068    -0.2740     0.6854 N.ar    
  12 C12            8.2054    -0.9491     0.9139 C.ar    
  13 C13            8.1875    -2.3550     0.9064 C.ar    
  14 C14            6.9613    -3.0236     0.6482 C.ar    
  15 C15            5.8145    -2.2471     0.4161 C.ar    
  16 C16            9.3444    -3.1116     1.1459 C.ar    
  17 C17            9.2740    -4.4720     1.1272 C.ar    
  18 C18            8.0705    -5.1273     0.8738 C.ar    
  19 C19            6.9266    -4.4265     0.6368 C.ar    
  20 C20            1.1686     2.1137     0.0889 C.ar    
  21 C21           -1.2445    -0.7029     0.1767 C.1     
  22 C22           -2.2578    -1.2942     0.2191 C.1     
  23 C23           -3.5284    -2.0356     0.2723 C.3     
  24 C24           -3.2432    -3.5386     0.2478 C.3     
  25 O25           -4.4766    -4.2583     0.2994 O.3     
  26 N26            3.7482     3.4273    -0.2392 N.2     
  27 O27            2.5868     4.1510    -0.6032 O.3     
  28 H28           -0.9569     1.9495     0.1770 H       
  29 H29            1.1995    -1.7573     0.0567 H       
  30 H30            5.8331     1.7729     0.4118 H       
  31 H31            9.1289    -0.4239     1.1084 H       
  32 H32            4.8620    -2.7151     0.2158 H       
  33 H33           10.2849    -2.6188     1.3435 H       
  34 H34           10.1659    -5.0524     1.3115 H       
  35 H35            8.0443    -6.2070     0.8652 H       
  36 H36            6.0003    -4.9464     0.4418 H       
  37 H37            1.1636     3.1936     0.0969 H       
  38 H38           -4.0592    -1.7814     1.1897 H       
  39 H39           -4.1415    -1.7680    -0.5883 H       
  40 H40           -2.7123    -3.7927    -0.6697 H       
  41 H41           -2.6301    -3.8062     1.1083 H       
  42 H42           -4.3719    -5.2195     0.2873 H       
  43 H43            2.7413     5.0941    -0.7512 H       
@<TRIPOS>BOND
   1    1    2 ar
   2    1   20 ar
   3    1   28 1
   4    2    3 ar
   5    2   21 1
   6    3    4 ar
   7    3   29 1
   8    4    5 ar
   9    4    6 1
  10    5   20 ar
  11    5    9 1
  12    6    7 1
  13    7    8 2
  14    7   10 1
  15    8    9 1
  16    8   30 1
  17    9   26 2
  18   10   11 ar
  19   10   15 ar
  20   11   12 ar
  21   12   13 ar
  22   12   31 1
  23   13   14 ar
  24   13   16 ar
  25   14   15 ar
  26   14   19 ar
  27   15   32 1
  28   16   17 ar
  29   16   33 1
  30   17   18 ar
  31   17   34 1
  32   18   19 ar
  33   18   35 1
  34   19   36 1
  35   20   37 1
  36   21   22 3
  37   22   23 1
  38   23   24 1
  39   23   38 1
  40   23   39 1
  41   24   25 1
  42   24   40 1
  43   24   41 1
  44   25   42 1
  45   26   27 1
  46   27   43 1

#	End of record

