#	Name: ASD06660087
#	Creating user name:	WinNT
#	Creation time:	15. 06. 2019 21:08

#	Modifying user name:	WinNT
#	Modification time:	15. 06. 2019 21:08

#	Program:	/corina/corina34_cracker 3.40 0067  02.08.2006

@<TRIPOS>MOLECULE
ASD06660087
  78   81    0    0    0
SMALL
NO_CHARGES


@<TRIPOS>ATOM
   1 C1             0.2627     1.9373     1.0525 C.2     
   2 C2             0.0327     0.5417     0.5326 C.3     
   3 C3            -1.1007     0.5607    -0.4951 C.3     
   4 O4             1.3397     2.4657     0.9087 O.2     
   5 O5            -0.7306     2.5955     1.6705 O.3     
   6 C6            -1.4197    -0.8504    -0.9172 C.ar    
   7 C7            -2.3422    -1.5924    -0.2026 C.ar    
   8 C8            -2.6369    -2.8858    -0.5867 C.ar    
   9 C9            -2.0054    -3.4412    -1.6923 C.ar    
  10 C10           -1.0792    -2.6931    -2.4079 C.ar    
  11 C11           -0.7934    -1.3983    -2.0217 C.ar    
  12 N12           -2.3007    -4.7492    -2.0833 N.3     
  13 C13           -1.5239    -5.1321    -3.2692 C.3     
  14 C14           -1.9771    -6.5110    -3.7542 C.3     
  15 C15           -1.7707    -7.5340    -2.6337 C.3     
  16 C16           -2.5513    -7.0867    -1.3947 C.3     
  17 C17           -2.0815    -5.6910    -0.9781 C.3     
  18 C18           -2.2784    -8.9029    -3.0912 C.3     
  19 N19           -1.9726    -9.9045    -2.0667 N.pl3   
  20 C20           -2.3401   -11.2312    -2.2602 C.ar    
  21 C21           -2.9969   -11.5997    -3.4273 C.ar    
  22 C22           -3.3579   -12.9291    -3.6066 C.ar    
  23 C23           -3.0436   -13.8432    -2.6010 C.ar    
  24 C24           -2.3903   -13.4026    -1.4705 C.ar    
  25 N25           -2.0555   -12.1327    -1.3319 N.ar    
  26 O26           -4.0014   -13.3288    -4.7331 O.3     
  27 C27           -4.3343   -14.7149    -4.8329 C.3     
  28 C28            2.2801    -0.3909     0.6599 C.2     
  29 C29            3.5507    -0.8035     0.0249 C.ar    
  30 C30            3.7937    -2.1533    -0.2380 C.ar    
  31 C31            4.9765    -2.5377    -0.8291 C.ar    
  32 C32            5.9334    -1.5772    -1.1659 C.ar    
  33 C33            5.6901    -0.2274    -0.9030 C.ar    
  34 C34            4.5043     0.1571    -0.3168 C.ar    
  35 O35            2.1578    -0.4481     1.8678 O.2     
  36 N36            1.2581     0.0484    -0.1009 N.am    
  37 C37            4.2389     1.6144    -0.0390 C.3     
  38 C38            2.7617    -3.1894     0.1259 C.3     
  39 C39            1.7526    -3.3270    -1.0159 C.3     
  40 C40            7.1636    -1.9767    -1.7803 C.1     
  41 N41            8.1396    -2.2936    -2.2677 N.1     
  42 H42           -0.2381    -0.1143     1.3599 H       
  43 H43           -1.9860     1.0161    -0.0513 H       
  44 H44           -0.7920     1.1394    -1.3657 H       
  45 H45           -0.5355     3.4882     1.9869 H       
  46 H46           -2.8326    -1.1600     0.6571 H       
  47 H47           -3.3572    -3.4648    -0.0280 H       
  48 H48           -0.5864    -3.1220    -3.2679 H       
  49 H49           -0.0769    -0.8145    -2.5804 H       
  50 H50           -1.6829    -4.3987    -4.0598 H       
  51 H51           -0.4648    -5.1669    -3.0139 H       
  52 H52           -3.0329    -6.4735    -4.0227 H       
  53 H53           -1.3896    -6.8017    -4.6251 H       
  54 H54           -0.7100    -7.6001    -2.3917 H       
  55 H55           -3.6161    -7.0582    -1.6261 H       
  56 H56           -2.3741    -7.7886    -0.5799 H       
  57 H57           -1.0197    -5.7232    -0.7336 H       
  58 H58           -2.6454    -5.3637    -0.1047 H       
  59 H59           -3.3565    -8.8578    -3.2448 H       
  60 H60           -1.7894    -9.1780    -4.0257 H       
  61 H61           -1.5137    -9.6420    -1.2535 H       
  62 H62           -3.2239   -10.8634    -4.1841 H       
  63 H63           -3.3096   -14.8846    -2.7070 H       
  64 H64           -2.1447   -14.1064    -0.6890 H       
  65 H65           -4.8437   -14.8990    -5.7788 H       
  66 H66           -3.4231   -15.3115    -4.7887 H       
  67 H67           -4.9900   -14.9914    -4.0073 H       
  68 H68            5.1646    -3.5816    -1.0321 H       
  69 H69            6.4298     0.5153    -1.1629 H       
  70 H70            1.3338     0.0380    -1.0679 H       
  71 H71            4.6062     1.8674     0.9555 H       
  72 H72            4.7517     2.2251    -0.7821 H       
  73 H73            3.1668     1.8045    -0.0897 H       
  74 H74            3.2527    -4.1479     0.2942 H       
  75 H75            2.2430    -2.8824     1.0341 H       
  76 H76            0.9518    -4.0019    -0.7138 H       
  77 H77            1.3338    -2.3484    -1.2506 H       
  78 H78            2.2532    -3.7287    -1.8969 H       
@<TRIPOS>BOND
   1    1    2 1
   2    1    4 2
   3    1    5 1
   4    2    3 1
   5    2   36 1
   6    2   42 1
   7    3    6 1
   8    3   43 1
   9    3   44 1
  10    5   45 1
  11    6    7 ar
  12    6   11 ar
  13    7    8 ar
  14    7   46 1
  15    8    9 ar
  16    8   47 1
  17    9   10 ar
  18    9   12 1
  19   10   11 ar
  20   10   48 1
  21   11   49 1
  22   12   13 1
  23   12   17 1
  24   13   14 1
  25   13   50 1
  26   13   51 1
  27   14   15 1
  28   14   52 1
  29   14   53 1
  30   15   16 1
  31   15   18 1
  32   15   54 1
  33   16   17 1
  34   16   55 1
  35   16   56 1
  36   17   57 1
  37   17   58 1
  38   18   19 1
  39   18   59 1
  40   18   60 1
  41   19   20 1
  42   19   61 1
  43   20   21 ar
  44   20   25 ar
  45   21   22 ar
  46   21   62 1
  47   22   23 ar
  48   22   26 1
  49   23   24 ar
  50   23   63 1
  51   24   25 ar
  52   24   64 1
  53   26   27 1
  54   27   65 1
  55   27   66 1
  56   27   67 1
  57   28   29 1
  58   28   35 2
  59   28   36 am
  60   29   30 ar
  61   29   34 ar
  62   30   31 ar
  63   30   38 1
  64   31   32 ar
  65   31   68 1
  66   32   33 ar
  67   32   40 1
  68   33   34 ar
  69   33   69 1
  70   34   37 1
  71   36   70 1
  72   37   71 1
  73   37   72 1
  74   37   73 1
  75   38   39 1
  76   38   74 1
  77   38   75 1
  78   39   76 1
  79   39   77 1
  80   39   78 1
  81   40   41 3

#	End of record

