#	Name: ASD01100078
#	Creating user name:	WinNT
#	Creation time:	15. 06. 2019 18:58

#	Modifying user name:	WinNT
#	Modification time:	15. 06. 2019 18:58

#	Program:	/corina/corina34_cracker 3.40 0067  02.08.2006

@<TRIPOS>MOLECULE
ASD01100078
  29   31    0    0    0
SMALL
NO_CHARGES


@<TRIPOS>ATOM
   1 C1            -0.0166     1.3905     0.0090 C.ar    
   2 C2            -0.0004     0.0071     0.0088 C.ar    
   3 C3             1.2060    -0.6700    -0.0017 C.ar    
   4 C4             2.3943     0.0359    -0.0120 C.ar    
   5 C5             2.3775     1.4182    -0.0117 C.ar    
   6 C6             1.1723     2.0953    -0.0012 C.ar    
   7 C7             3.6734     2.1872    -0.0223 C.3     
   8 Cl8           -1.4933    -0.8788     0.0222 Cl      
   9 C9             4.8303     1.5019    -0.7029 C.2     
  10 N10            4.7089     1.0808    -1.9774 N.am    
  11 O11            5.8706     1.3294    -0.1037 O.2     
  12 C12            5.8077     0.5472    -2.6407 C.2     
  13 N13            5.7992     0.1143    -3.8625 N.2     
  14 C14            6.9359    -0.3611    -4.3359 C.2     
  15 C15            7.9533    -0.3283    -3.4731 C.2     
  16 S16            7.3691     0.3731    -1.9663 S.3     
  17 C17            3.5899     3.7108    -0.1342 C.3     
  18 C18            3.9863     3.0611     1.1939 C.3     
  19 H19           -0.9581     1.9196     0.0127 H       
  20 H20            1.2193    -1.7499    -0.0016 H       
  21 H21            3.3361    -0.4926    -0.0198 H       
  22 H22            1.1598     3.1752    -0.0010 H       
  23 H23            3.8547     1.1500    -2.4318 H       
  24 H24            7.0345    -0.7455    -5.3404 H       
  25 H25            8.9598    -0.6691    -3.6659 H       
  26 H26            4.3719     4.2176    -0.6997 H       
  27 H27            2.5976     4.1569    -0.2000 H       
  28 H28            3.2547     3.0801     2.0017 H       
  29 H29            5.0289     3.1407     1.5017 H       
@<TRIPOS>BOND
   1    1    2 ar
   2    1    6 ar
   3    1   19 1
   4    2    3 ar
   5    2    8 1
   6    3    4 ar
   7    3   20 1
   8    4    5 ar
   9    4   21 1
  10    5    6 ar
  11    5    7 1
  12    6   22 1
  13    7    9 1
  14    7   17 1
  15    7   18 1
  16    9   10 am
  17    9   11 2
  18   10   12 1
  19   10   23 1
  20   12   13 2
  21   12   16 1
  22   13   14 1
  23   14   15 2
  24   14   24 1
  25   15   16 1
  26   15   25 1
  27   17   18 1
  28   17   26 1
  29   17   27 1
  30   18   28 1
  31   18   29 1

#	End of record

