#	Name: ASD02198854
#	Creating user name:	WinNT
#	Creation time:	15. 06. 2019 20:20

#	Modifying user name:	WinNT
#	Modification time:	15. 06. 2019 20:20

#	Program:	/corina/corina34_cracker 3.40 0067  02.08.2006

@<TRIPOS>MOLECULE
ASD02198854
  55   59    0    0    0
SMALL
NO_CHARGES


@<TRIPOS>ATOM
   1 C1            -0.0433     1.5017    -0.1150 C.2     
   2 C2            -0.0730     0.1620     0.0975 C.2     
   3 N3             1.0713    -0.5396     0.2603 N.pl3   
   4 N4             2.2358    -0.0048     0.2263 N.2     
   5 C5             2.4073     1.2848     0.0277 C.2     
   6 C6             1.2215     2.1358    -0.1604 C.2     
   7 C7             0.9799    -1.9179     0.4772 C.ar    
   8 C8             1.5821    -2.4886     1.5983 C.ar    
   9 C9             1.4910    -3.8527     1.8119 C.ar    
  10 C10            0.7979    -4.6525     0.9065 C.ar    
  11 C11            0.1976    -4.0778    -0.2127 C.ar    
  12 C12            0.2844    -2.7175    -0.4212 C.ar    
  13 C13            3.7642     1.8672    -0.0050 C.2     
  14 N14            4.3061     2.6070    -1.0182 N.pl3   
  15 N15            5.6079     2.9589    -0.6404 N.2     
  16 C16            5.8517     2.4596     0.5452 C.2     
  17 C17            4.7198     1.7719     0.9828 C.2     
  18 C18            3.6731     2.9516    -2.2192 C.ar    
  19 C19            3.8069     4.2347    -2.7331 C.ar    
  20 C20            3.1819     4.5712    -3.9178 C.ar    
  21 C21            2.4229     3.6321    -4.5919 C.ar    
  22 C22            2.2877     2.3535    -4.0827 C.ar    
  23 C23            2.9149     2.0091    -2.9014 C.ar    
  24 O24            1.3244     3.3389    -0.3487 O.2     
  25 C25            0.6990    -6.1162     1.1329 C.2     
  26 C26            1.2524    -6.8307     2.2134 C.2     
  27 N27            0.9518    -8.0933     2.0616 N.2     
  28 N28            0.2009    -8.2341     0.8883 N.pl3   
  29 C29            0.0504    -7.0136     0.3353 C.2     
  30 C30           -0.3343    -9.4899     0.3566 C.3     
  31 F31           -0.6061   -10.3655     1.4134 F       
  32 F32           -1.5137    -9.2319    -0.3504 F       
  33 C33            7.1402     2.6080     1.3124 C.3     
  34 O34            2.2582    -1.7057     2.4799 O.3     
  35 C35            2.8498    -2.3577     3.6054 C.3     
  36 H36           -0.9547     2.0653    -0.2495 H       
  37 H37           -1.0228    -0.3505     0.1375 H       
  38 H38            1.9569    -4.2966     2.6793 H       
  39 H39           -0.3399    -4.6979    -0.9148 H       
  40 H40           -0.1817    -2.2741    -1.2887 H       
  41 H41            4.6139     1.2527     1.9239 H       
  42 H42            4.3990     4.9688    -2.2067 H       
  43 H43            3.2856     5.5689    -4.3180 H       
  44 H44            1.9345     3.8979    -5.5177 H       
  45 H45            1.6943     1.6223    -4.6115 H       
  46 H46            2.8092     1.0103    -2.5044 H       
  47 H47            1.8256    -6.4086     3.0255 H       
  48 H48           -0.4813    -6.7880    -0.5773 H       
  49 H49            0.3981    -9.9430    -0.3115 H       
  50 H50            7.0925     3.5027     1.9331 H       
  51 H51            7.2886     1.7337     1.9460 H       
  52 H52            7.9716     2.6951     0.6129 H       
  53 H53            3.3571    -1.6202     4.2273 H       
  54 H54            2.0729    -2.8521     4.1887 H       
  55 H55            3.5706    -3.0983     3.2589 H       
@<TRIPOS>BOND
   1    1    2 2
   2    1    6 1
   3    1   36 1
   4    2    3 1
   5    2   37 1
   6    3    4 1
   7    3    7 1
   8    4    5 2
   9    5    6 1
  10    5   13 1
  11    6   24 2
  12    7    8 ar
  13    7   12 ar
  14    8    9 ar
  15    8   34 1
  16    9   10 ar
  17    9   38 1
  18   10   11 ar
  19   10   25 1
  20   11   12 ar
  21   11   39 1
  22   12   40 1
  23   13   14 1
  24   13   17 2
  25   14   15 1
  26   14   18 1
  27   15   16 2
  28   16   17 1
  29   16   33 1
  30   17   41 1
  31   18   19 ar
  32   18   23 ar
  33   19   20 ar
  34   19   42 1
  35   20   21 ar
  36   20   43 1
  37   21   22 ar
  38   21   44 1
  39   22   23 ar
  40   22   45 1
  41   23   46 1
  42   25   26 1
  43   25   29 2
  44   26   27 2
  45   26   47 1
  46   27   28 1
  47   28   29 1
  48   28   30 1
  49   29   48 1
  50   30   31 1
  51   30   32 1
  52   30   49 1
  53   33   50 1
  54   33   51 1
  55   33   52 1
  56   34   35 1
  57   35   53 1
  58   35   54 1
  59   35   55 1

#	End of record

