#	Name: ASD09740233
#	Creating user name:	WinNT
#	Creation time:	15. 06. 2019 21:23

#	Modifying user name:	WinNT
#	Modification time:	15. 06. 2019 21:23

#	Program:	/corina/corina34_cracker 3.40 0067  02.08.2006

@<TRIPOS>MOLECULE
ASD09740233
  47   49    0    0    0
SMALL
NO_CHARGES


@<TRIPOS>ATOM
   1 C1            -0.0161     1.3325     0.0094 C.2     
   2 O2             0.0021    -0.0041     0.0020 O.3     
   3 N3            -1.1317    -0.4349     0.0113 N.2     
   4 C4            -1.9878     0.5533     0.0253 C.2     
   5 N5            -1.2727     1.7010     0.0291 N.2     
   6 C6            -3.4674     0.4371     0.0397 C.ar    
   7 C7            -4.2670     1.5779     0.0535 C.ar    
   8 C8            -4.0810    -0.8182     0.0340 C.ar    
   9 C9            -5.4644    -0.8730     0.0481 C.ar    
  10 C10           -6.1877     0.3052     0.0672 C.ar    
  11 N11           -5.5801     1.4762     0.0668 N.ar    
  12 C12           -6.1741    -2.2025     0.0422 C.3     
  13 C13            1.1840     2.2440     0.0028 C.3     
  14 C14            2.0257     1.9751     1.2236 C.ar    
  15 C15            2.2612     2.9855     2.1370 C.ar    
  16 C16            2.5577     0.7164     1.4328 C.ar    
  17 C17            3.3298     0.4698     2.5525 C.ar    
  18 C18            3.5703     1.4819     3.4629 C.ar    
  19 C19            3.0334     2.7389     3.2568 C.ar    
  20 C20            2.0141     1.9852    -1.2561 C.3     
  21 C21            4.4117     1.2128     4.6839 C.3     
  22 C22            5.8803     1.4993     4.3645 C.3     
  23 C23            6.0571     2.9906     4.0718 C.3     
  24 C24            6.7483     1.1083     5.5623 C.3     
  25 H25           -3.8059     2.5545     0.0536 H       
  26 H26           -3.4911    -1.7228     0.0186 H       
  27 H27           -7.2670     0.2663     0.0783 H       
  28 H28           -6.3343    -2.5334     1.0683 H       
  29 H29           -7.1357    -2.0987    -0.4605 H       
  30 H30           -5.5655    -2.9368    -0.4856 H       
  31 H31            0.8518     3.2821     0.0120 H       
  32 H32            1.8423     3.9678     1.9756 H       
  33 H33            2.3697    -0.0743     0.7215 H       
  34 H34            3.7448    -0.5138     2.7164 H       
  35 H35            3.2213     3.5296     3.9680 H       
  36 H36            2.8821     2.6445    -1.2609 H       
  37 H37            2.3463     0.9471    -1.2653 H       
  38 H38            1.4053     2.1797    -2.1391 H       
  39 H39            4.0847     1.8576     5.4996 H       
  40 H40            4.3008     0.1693     4.9788 H       
  41 H41            6.1822     0.9195     3.4923 H       
  42 H42            7.1033     3.1946     3.8443 H       
  43 H43            5.4387     3.2691     3.2185 H       
  44 H44            5.7551     3.5704     4.9440 H       
  45 H45            6.6224     0.0459     5.7708 H       
  46 H46            7.7946     1.3124     5.3348 H       
  47 H47            6.4463     1.6881     6.4345 H       
@<TRIPOS>BOND
   1    1    2 1
   2    1   13 1
   3    1    5 2
   4    2    3 1
   5    3    4 2
   6    4    5 1
   7    4    6 1
   8    6    7 ar
   9    6    8 ar
  10    7   11 ar
  11    7   25 1
  12    8    9 ar
  13    8   26 1
  14    9   10 ar
  15    9   12 1
  16   10   11 ar
  17   10   27 1
  18   12   28 1
  19   12   29 1
  20   12   30 1
  21   13   14 1
  22   13   20 1
  23   13   31 1
  24   14   15 ar
  25   14   16 ar
  26   15   19 ar
  27   15   32 1
  28   16   17 ar
  29   16   33 1
  30   17   18 ar
  31   17   34 1
  32   18   19 ar
  33   18   21 1
  34   19   35 1
  35   20   36 1
  36   20   37 1
  37   20   38 1
  38   21   22 1
  39   21   39 1
  40   21   40 1
  41   22   23 1
  42   22   24 1
  43   22   41 1
  44   23   42 1
  45   23   43 1
  46   23   44 1
  47   24   45 1
  48   24   46 1
  49   24   47 1

#	End of record

