#	Name: ASD02198173
#	Creating user name:	WinNT
#	Creation time:	15. 06. 2019 20:18

#	Modifying user name:	WinNT
#	Modification time:	15. 06. 2019 20:18

#	Program:	/corina/corina34_cracker 3.40 0067  02.08.2006

@<TRIPOS>MOLECULE
ASD02198173
  38   40    0    0    0
SMALL
NO_CHARGES


@<TRIPOS>ATOM
   1 C1             0.5529     1.3801    -0.6368 C.2     
   2 C2             0.4626     0.0068    -0.5478 C.2     
   3 C3            -0.7722    -0.6809    -0.3178 C.1     
   4 S4             2.1630     1.8670    -0.9149 S.3     
   5 C5             2.7349     0.2065    -0.9138 C.2     
   6 C6             1.6807    -0.6510    -0.7023 C.2     
   7 C7             4.0731    -0.1880    -1.1014 C.2     
   8 C8             5.0972     0.8173    -1.4632 C.ar    
   9 O9             4.3885    -1.3581    -0.9658 O.2     
  10 N10            1.8166    -2.0292    -0.6477 N.pl3   
  11 N11           -0.5140     2.2412    -0.5223 N.pl3   
  12 N12           -1.7517    -1.2265    -0.1354 N.1     
  13 C13            4.7428     1.9405    -2.2115 C.ar    
  14 C14           -0.2987     3.6218    -0.5036 C.ar    
  15 C15           -1.2118     4.4770    -1.1073 C.ar    
  16 C16            5.7021     2.8740    -2.5456 C.ar    
  17 C17            7.0134     2.6981    -2.1406 C.ar    
  18 C18            7.3713     1.5866    -1.3984 C.ar    
  19 C19            6.4201     0.6490    -1.0525 C.ar    
  20 C20           -0.9961     5.8411    -1.0865 C.ar    
  21 C21            0.1274     6.3556    -0.4662 C.ar    
  22 C22            1.0386     5.5070     0.1359 C.ar    
  23 C23            0.8263     4.1427     0.1238 C.ar    
  24 N24           -1.9686     6.7531    -1.7295 N.pl3   
  25 O25           -2.9583     6.3006    -2.2765 O.2     
  26 O26           -1.7791     7.9561    -1.7116 O.2     
  27 H27            2.6900    -2.4354    -0.7615 H       
  28 H28            1.0381    -2.5877    -0.4956 H       
  29 H29           -1.4156     1.8900    -0.4546 H       
  30 H30            3.7197     2.0786    -2.5289 H       
  31 H31           -2.0892     4.0757    -1.5926 H       
  32 H32            5.4291     3.7437    -3.1247 H       
  33 H33            7.7608     3.4314    -2.4052 H       
  34 H34            8.3965     1.4550    -1.0853 H       
  35 H35            6.7007    -0.2181    -0.4729 H       
  36 H36            0.2940     7.4226    -0.4520 H       
  37 H37            1.9151     5.9122     0.6196 H       
  38 H38            1.5382     3.4806     0.5941 H       
@<TRIPOS>BOND
   1    1    2 2
   2    1    4 1
   3    1   11 1
   4    2    3 1
   5    2    6 1
   6    3   12 3
   7    4    5 1
   8    5    6 2
   9    5    7 1
  10    6   10 1
  11    7    8 1
  12    7    9 2
  13    8   13 ar
  14    8   19 ar
  15   10   27 1
  16   10   28 1
  17   11   14 1
  18   11   29 1
  19   13   16 ar
  20   13   30 1
  21   14   15 ar
  22   14   23 ar
  23   15   20 ar
  24   15   31 1
  25   16   17 ar
  26   16   32 1
  27   17   18 ar
  28   17   33 1
  29   18   19 ar
  30   18   34 1
  31   19   35 1
  32   20   21 ar
  33   20   24 1
  34   21   22 ar
  35   21   36 1
  36   22   23 ar
  37   22   37 1
  38   23   38 1
  39   24   25 2
  40   24   26 2

#	End of record

