#	Name: ASD04880880
#	Creating user name:	WinNT
#	Creation time:	15. 06. 2019 20:53

#	Modifying user name:	WinNT
#	Modification time:	15. 06. 2019 20:53

#	Program:	/corina/corina34_cracker 3.40 0067  02.08.2006

@<TRIPOS>MOLECULE
ASD04880880
  80   84    0    0    0
SMALL
NO_CHARGES


@<TRIPOS>ATOM
   1 N1            -0.1373     1.1379    -0.7032 N.am    
   2 C2            -0.0317    -0.2280    -0.4100 C.ar    
   3 C3            -1.1515    -0.9365     0.0347 C.ar    
   4 C4            -1.0481    -2.2918     0.3260 C.ar    
   5 C5             0.1574    -2.9412     0.1782 C.ar    
   6 C6             1.2812    -2.2385    -0.2656 C.ar    
   7 C7             1.1784    -0.8773    -0.5655 C.ar    
   8 C8             2.5726    -2.9342    -0.4230 C.2     
   9 O9             3.5498    -2.3221    -0.8091 O.2     
  10 N10            2.6694    -4.2481    -0.1388 N.am    
  11 C11            3.9518    -4.9388    -0.2951 C.3     
  12 C12            3.7888    -6.4104     0.0906 C.3     
  13 N13           -2.3721    -0.2838     0.1865 N.3     
  14 C14           -2.3082     0.7074     1.2696 C.3     
  15 C15           -3.6405     1.4562     1.3515 C.3     
  16 N16           -4.7266     0.4943     1.5851 N.3     
  17 C17           -4.7905    -0.4968     0.5020 C.3     
  18 C18           -3.4582    -1.2457     0.4201 C.3     
  19 C19           -5.9510     1.1490     1.7374 C.ar    
  20 C20           -6.1737     1.9605     2.8423 C.ar    
  21 C21           -7.3854     2.6069     2.9896 C.ar    
  22 C22           -8.3763     2.4464     2.0387 C.ar    
  23 C23           -8.1579     1.6390     0.9372 C.ar    
  24 C24           -6.9468     0.9945     0.7809 C.ar    
  25 C25           -5.0946     2.1352     3.8797 C.3     
  26 C26            5.1281    -7.1318    -0.0726 C.3     
  27 N27            4.9720    -8.5409     0.2967 N.am    
  28 C28            4.5991    -9.6064    -0.6413 C.3     
  29 C29            4.1368   -10.7880     0.2399 C.3     
  30 C30            4.8984   -10.5154     1.5578 C.3     
  31 C31            5.1574    -9.0250     1.5369 C.2     
  32 O32            5.4826    -8.3628     2.4996 O.2     
  33 C33            0.9094     1.9575    -0.4818 C.2     
  34 C34            0.8400     3.3630    -0.8938 C.2     
  35 O35            1.9124     1.5310     0.0601 O.2     
  36 C36            1.8231     4.2966    -0.7304 C.2     
  37 C37            1.3322     5.4976    -1.2662 C.2     
  38 C38            0.0868     5.2476    -1.7273 C.2     
  39 O39           -0.2041     3.9591    -1.5059 O.3     
  40 C40            2.0574     6.8176    -1.3169 C.3     
  41 C41           -0.8226     6.2518    -2.3872 C.3     
  42 H42           -0.9624     1.4930    -1.0692 H       
  43 H43           -1.9150    -2.8368     0.6694 H       
  44 H44            0.2345    -3.9941     0.4057 H       
  45 H45            2.0440    -0.3328    -0.9132 H       
  46 H46            1.8899    -4.7363     0.1693 H       
  47 H47            4.2779    -4.8692    -1.3328 H       
  48 H48            4.6960    -4.4741     0.3516 H       
  49 H49            3.4627    -6.4801     1.1283 H       
  50 H50            3.0445    -6.8752    -0.5561 H       
  51 H51           -2.1172     0.2005     2.2155 H       
  52 H52           -1.5047     1.4157     1.0675 H       
  53 H53           -3.6055     2.1719     2.1729 H       
  54 H54           -3.8184     1.9853     0.4152 H       
  55 H55           -5.5940    -1.2051     0.7041 H       
  56 H56           -4.9815     0.0100    -0.4439 H       
  57 H57           -3.4932    -1.9613    -0.4013 H       
  58 H58           -3.2803    -1.7747     1.3564 H       
  59 H59           -7.5592     3.2380     3.8485 H       
  60 H60           -9.3232     2.9524     2.1566 H       
  61 H61           -8.9341     1.5156     0.1965 H       
  62 H62           -6.7752     0.3677    -0.0817 H       
  63 H63           -4.5126     3.0282     3.6518 H       
  64 H64           -5.5505     2.2401     4.8642 H       
  65 H65           -4.4401     1.2636     3.8735 H       
  66 H66            5.4542    -7.0622    -1.1104 H       
  67 H67            5.8723    -6.6671     0.5741 H       
  68 H68            3.7843    -9.2744    -1.2847 H       
  69 H69            5.4603    -9.8983    -1.2422 H       
  70 H70            3.0589   -10.7578     0.3989 H       
  71 H71            4.4389   -11.7406    -0.1952 H       
  72 H72            4.2842   -10.7866     2.4164 H       
  73 H73            5.8411   -11.0623     1.5738 H       
  74 H74            2.7906     4.1413    -0.2764 H       
  75 H75            2.6222     6.8864    -2.2466 H       
  76 H76            1.3339     7.6316    -1.2703 H       
  77 H77            2.7405     6.8897    -0.4706 H       
  78 H78           -0.6521     6.2440    -3.4638 H       
  79 H79           -1.8610     5.9916    -2.1820 H       
  80 H80           -0.6125     7.2462    -1.9933 H       
@<TRIPOS>BOND
   1    1    2 1
   2    1   33 am
   3    1   42 1
   4    2    3 ar
   5    2    7 ar
   6    3    4 ar
   7    3   13 1
   8    4    5 ar
   9    4   43 1
  10    5    6 ar
  11    5   44 1
  12    6    7 ar
  13    6    8 1
  14    7   45 1
  15    8    9 2
  16    8   10 am
  17   10   11 1
  18   10   46 1
  19   11   12 1
  20   11   47 1
  21   11   48 1
  22   12   26 1
  23   12   49 1
  24   12   50 1
  25   13   14 1
  26   13   18 1
  27   14   15 1
  28   14   51 1
  29   14   52 1
  30   15   16 1
  31   15   53 1
  32   15   54 1
  33   16   17 1
  34   16   19 1
  35   17   18 1
  36   17   55 1
  37   17   56 1
  38   18   57 1
  39   18   58 1
  40   19   20 ar
  41   19   24 ar
  42   20   21 ar
  43   20   25 1
  44   21   22 ar
  45   21   59 1
  46   22   23 ar
  47   22   60 1
  48   23   24 ar
  49   23   61 1
  50   24   62 1
  51   25   63 1
  52   25   64 1
  53   25   65 1
  54   26   27 1
  55   26   66 1
  56   26   67 1
  57   27   28 1
  58   27   31 am
  59   28   29 1
  60   28   68 1
  61   28   69 1
  62   29   30 1
  63   29   70 1
  64   29   71 1
  65   30   31 1
  66   30   72 1
  67   30   73 1
  68   31   32 2
  69   33   34 1
  70   33   35 2
  71   34   36 2
  72   34   39 1
  73   36   37 1
  74   36   74 1
  75   37   38 2
  76   37   40 1
  77   38   39 1
  78   38   41 1
  79   40   75 1
  80   40   76 1
  81   40   77 1
  82   41   78 1
  83   41   79 1
  84   41   80 1

#	End of record

