#	Name: ASD01410673
#	Creating user name:	WinNT
#	Creation time:	15. 06. 2019 19:18

#	Modifying user name:	WinNT
#	Modification time:	15. 06. 2019 19:18

#	Program:	/corina/corina34_cracker 3.40 0067  02.08.2006

@<TRIPOS>MOLECULE
ASD01410673
  70   73    0    0    0
SMALL
NO_CHARGES


@<TRIPOS>ATOM
   1 C1             6.8052     7.0351    -1.3730 C.ar    
   2 C2             7.3782     6.5277    -2.5308 C.ar    
   3 C3             7.8169     5.2184    -2.5498 C.ar    
   4 N4             7.6975     4.4496    -1.4844 N.ar    
   5 C5             7.1570     4.8970    -0.3627 C.ar    
   6 C6             6.6941     6.2034    -0.2721 C.ar    
   7 O7             7.0535     4.0717     0.7090 O.3     
   8 C8             7.4217     2.7718     0.5519 C.ar    
   9 C9             8.7574     2.4061     0.6980 C.ar    
  10 C10            9.1413     1.0872     0.5401 C.ar    
  11 C11            8.1962     0.1192     0.2343 C.ar    
  12 C12            6.8484     0.4824     0.0859 C.ar    
  13 C13            6.4686     1.8175     0.2534 C.ar    
  14 F14            9.6827     3.3446     0.9950 F       
  15 N15            8.5836    -1.2103     0.0743 N.am    
  16 C16            8.6725    -2.0202     1.1479 C.2     
  17 C17            8.8943    -1.7272    -1.2608 C.3     
  18 O18            9.0808    -3.1550     1.0194 O.2     
  19 C19            8.2643    -1.5158     2.5081 C.3     
  20 C20            7.5195     7.3961    -3.7543 C.3     
  21 C21            8.9938    -2.3163     3.5888 C.3     
  22 C22            8.5795    -1.8042     4.9698 C.3     
  23 C23            7.0686    -1.9716     5.1436 C.3     
  24 C24            6.3391    -1.1712     4.0628 C.3     
  25 C25            6.7535    -1.6832     2.6819 C.3     
  26 C26            6.6543    -1.4595     6.5245 C.3     
  27 C27           10.3496    -1.4052    -1.6065 C.3     
  28 O28           11.2181    -2.1300    -0.7334 O.3     
  29 C29           12.6078    -1.8994    -0.9731 C.3     
  30 N30            8.8099     8.0887    -3.7151 N.pl3   
  31 N31            9.9015     7.6286    -4.2155 N.2     
  32 N32            9.0040     9.2420    -3.1805 N.2     
  33 C33           10.2697     9.5646    -3.3219 C.2     
  34 C34           10.8620     8.4999    -4.0049 C.2     
  35 C35            6.0797     6.7088     1.0078 C.3     
  36 F36            5.6958     8.0443     0.8452 F       
  37 F37            4.9570     5.9359     1.3230 F       
  38 F38            7.0158     6.6154     2.0432 F       
  39 C39            5.8383    -0.5389    -0.2388 C.2     
  40 O40            6.1708    -1.6993    -0.3788 O.2     
  41 O41            4.5452    -0.1866    -0.3805 O.3     
  42 H42            6.4581     8.0569    -1.3305 H       
  43 H43            8.2631     4.8186    -3.4484 H       
  44 H44           10.1789     0.8104     0.6548 H       
  45 H45            5.4333     2.1037     0.1406 H       
  46 H46            8.7478    -2.8072    -1.2755 H       
  47 H47            8.2352    -1.2611    -1.9933 H       
  48 H48            8.5258    -0.4615     2.5981 H       
  49 H49            7.4675     6.7751    -4.6486 H       
  50 H50            6.7137     8.1299    -3.7741 H       
  51 H51            8.7323    -3.3706     3.4988 H       
  52 H52           10.0702    -2.1970     3.4650 H       
  53 H53            9.0992    -2.3744     5.7397 H       
  54 H54            8.8409    -0.7498     5.0598 H       
  55 H55            6.8071    -3.0259     5.0535 H       
  56 H56            5.2628    -1.2904     4.1866 H       
  57 H57            6.6006    -0.1168     4.1528 H       
  58 H58            6.2338    -1.1130     1.9119 H       
  59 H59            6.4920    -2.7376     2.5918 H       
  60 H60            6.9157    -0.4052     6.6145 H       
  61 H61            5.5779    -1.5788     6.6483 H       
  62 H62            7.1740    -2.0298     7.2945 H       
  63 H63           10.5499    -1.6922    -2.6388 H       
  64 H64           10.5235    -0.3359    -1.4864 H       
  65 H65           13.1999    -2.4852    -0.2700 H       
  66 H66           12.8550    -2.1966    -1.9922 H       
  67 H67           12.8286    -0.8403    -0.8399 H       
  68 H68           10.7526    10.4691    -2.9825 H       
  69 H69           11.8974     8.4108    -4.2989 H       
  70 H70            3.9189    -0.8918    -0.5937 H       
@<TRIPOS>BOND
   1    1    2 ar
   2    1    6 ar
   3    1   42 1
   4    2    3 ar
   5    2   20 1
   6    3    4 ar
   7    3   43 1
   8    4    5 ar
   9    5    6 ar
  10    5    7 1
  11    6   35 1
  12    7    8 1
  13    8    9 ar
  14    8   13 ar
  15    9   10 ar
  16    9   14 1
  17   10   11 ar
  18   10   44 1
  19   11   12 ar
  20   11   15 1
  21   12   13 ar
  22   12   39 1
  23   13   45 1
  24   15   16 am
  25   15   17 1
  26   16   18 2
  27   16   19 1
  28   17   27 1
  29   17   46 1
  30   17   47 1
  31   19   21 1
  32   19   25 1
  33   19   48 1
  34   20   30 1
  35   20   49 1
  36   20   50 1
  37   21   22 1
  38   21   51 1
  39   21   52 1
  40   22   23 1
  41   22   53 1
  42   22   54 1
  43   23   24 1
  44   23   26 1
  45   23   55 1
  46   24   25 1
  47   24   56 1
  48   24   57 1
  49   25   58 1
  50   25   59 1
  51   26   60 1
  52   26   61 1
  53   26   62 1
  54   27   28 1
  55   27   63 1
  56   27   64 1
  57   28   29 1
  58   29   65 1
  59   29   66 1
  60   29   67 1
  61   30   31 1
  62   30   32 1
  63   31   34 2
  64   32   33 2
  65   33   34 1
  66   33   68 1
  67   34   69 1
  68   35   36 1
  69   35   37 1
  70   35   38 1
  71   39   40 2
  72   39   41 1
  73   41   70 1

#	End of record

