#	Name: ASD01900552
#	Creating user name:	WinNT
#	Creation time:	15. 06. 2019 19:52

#	Modifying user name:	WinNT
#	Modification time:	15. 06. 2019 19:52

#	Program:	/corina/corina34_cracker 3.40 0067  02.08.2006

@<TRIPOS>MOLECULE
ASD01900552
  47   50    0    0    0
SMALL
NO_CHARGES


@<TRIPOS>ATOM
   1 C1             0.9850     3.1569     0.7507 C.ar    
   2 C2             2.0487     3.6068     1.5302 C.ar    
   3 C3             3.2477     2.9129     1.4977 C.ar    
   4 C4             3.3417     1.7926     0.6865 C.ar    
   5 C5             2.2432     1.4021    -0.0622 C.ar    
   6 N6             1.1166     2.0791    -0.0127 N.ar    
   7 C7            -0.3053     3.8839     0.7789 C.2     
   8 O8            -0.4328     4.8684     1.4799 O.2     
   9 N9            -1.3378     3.4535     0.0271 N.am    
  10 C10           -2.5849     4.0804     0.1267 C.ar    
  11 C11           -2.6583     5.4515     0.3376 C.ar    
  12 C12           -3.8894     6.0698     0.4354 C.ar    
  13 C13           -5.0541     5.3200     0.3227 C.ar    
  14 C14           -4.9801     3.9503     0.1121 C.ar    
  15 C15           -3.7494     3.3328     0.0090 C.ar    
  16 N16           -8.1491     6.7487     1.3926 N.am    
  17 C17           -6.9732     6.1166     1.5704 C.2     
  18 N18           -6.3054     5.9481     0.4225 N.am    
  19 C19           -6.9841     6.4572    -0.6266 C.2     
  20 C20           -8.2588     7.0244    -0.0456 C.3     
  21 C21           -9.4738     6.3155    -0.6337 C.3     
  22 C22          -10.7500     6.8812    -0.0051 C.3     
  23 C23          -10.8308     8.3837    -0.2827 C.3     
  24 C24           -9.6167     9.0842     0.3306 C.3     
  25 C25           -8.3365     8.5263    -0.2967 C.3     
  26 O26           -6.6430     6.4596    -1.7900 O.2     
  27 O27           -6.5643     5.7413     2.6516 O.2     
  28 Cl28          -3.9820     7.7831     0.6994 Cl      
  29 H29            1.9403     4.4842     2.1506 H       
  30 H30            4.0900     3.2376     2.0905 H       
  31 H31            4.2622     1.2299     0.6384 H       
  32 H32            2.3129     0.5298    -0.6952 H       
  33 H33           -1.2164     2.7092    -0.5830 H       
  34 H34           -1.7530     6.0337     0.4254 H       
  35 H35           -5.8853     3.3679     0.0246 H       
  36 H36           -3.6923     2.2675    -0.1593 H       
  37 H37           -8.7973     6.9735     2.0783 H       
  38 H38           -9.4995     6.4728    -1.7120 H       
  39 H39           -9.4081     5.2478    -0.4241 H       
  40 H40          -11.6189     6.3845    -0.4368 H       
  41 H41          -10.7312     6.7110     1.0714 H       
  42 H42          -10.8425     8.5538    -1.3593 H       
  43 H43          -11.7430     8.7858     0.1580 H       
  44 H44           -9.6792    10.1552     0.1378 H       
  45 H45           -9.6008     8.9087     1.4063 H       
  46 H46           -7.4704     9.0146     0.1503 H       
  47 H47           -8.3458     8.7151    -1.3702 H       
@<TRIPOS>BOND
   1    1    2 ar
   2    1    6 ar
   3    1    7 1
   4    2    3 ar
   5    2   29 1
   6    3    4 ar
   7    3   30 1
   8    4    5 ar
   9    4   31 1
  10    5    6 ar
  11    5   32 1
  12    7    8 2
  13    7    9 am
  14    9   10 1
  15    9   33 1
  16   10   11 ar
  17   10   15 ar
  18   11   12 ar
  19   11   34 1
  20   12   13 ar
  21   12   28 1
  22   13   14 ar
  23   13   18 1
  24   14   15 ar
  25   14   35 1
  26   15   36 1
  27   16   17 am
  28   16   20 1
  29   16   37 1
  30   17   18 am
  31   17   27 2
  32   18   19 am
  33   19   20 1
  34   19   26 2
  35   20   21 1
  36   20   25 1
  37   21   22 1
  38   21   38 1
  39   21   39 1
  40   22   23 1
  41   22   40 1
  42   22   41 1
  43   23   24 1
  44   23   42 1
  45   23   43 1
  46   24   25 1
  47   24   44 1
  48   24   45 1
  49   25   46 1
  50   25   47 1

#	End of record

