#	Name: ASD03331503
#	Creating user name:	WinNT
#	Creation time:	15. 06. 2019 20:39

#	Modifying user name:	WinNT
#	Modification time:	15. 06. 2019 20:39

#	Program:	/corina/corina34_cracker 3.40 0067  02.08.2006

@<TRIPOS>MOLECULE
ASD03331503
  55   57    0    0    0
SMALL
NO_CHARGES


@<TRIPOS>ATOM
   1 C1            -0.2307     1.1933    -0.8333 C.ar    
   2 C2            -0.2729    -0.1869    -0.8468 C.ar    
   3 C3            -1.0732    -0.8666     0.0724 C.ar    
   4 C4            -1.8266    -0.1475     1.0005 C.ar    
   5 C5            -1.7779     1.2313     1.0064 C.ar    
   6 C6            -0.9787     1.9029     0.0963 C.ar    
   7 C7            -1.1228    -2.3455     0.0624 C.2     
   8 N8            -2.1993    -3.1160     0.4309 N.pl3   
   9 C9            -1.8171    -4.4065     0.3013 C.2     
  10 C10           -0.5361    -4.4119    -0.1747 C.2     
  11 N11           -0.1418    -3.1290    -0.3084 N.2     
  12 C12           -3.4760    -2.5607     0.8897 C.3     
  13 C13           -4.6680    -3.4886     0.5997 C.3     
  14 C14           -4.7258    -4.5631     1.6992 C.3     
  15 N15           -3.4907    -5.3356     1.7679 N.am    
  16 C16           -2.6318    -5.6272     0.6301 C.3     
  17 C17            0.2726    -5.6011    -0.4897 C.2     
  18 O18           -0.1931    -6.7125    -0.3301 O.2     
  19 O19            1.5295    -5.4575    -0.9550 O.3     
  20 F20            0.5436     1.8535    -1.7219 F       
  21 F21           -0.9344     3.2531     0.1067 F       
  22 C22           -3.1240    -5.8176     2.9894 C.2     
  23 O23           -3.8171    -5.5969     3.9627 O.2     
  24 O24           -1.9938    -6.5381     3.1172 O.3     
  25 C25           -1.6656    -7.0193     4.4473 C.3     
  26 C26           -2.7900    -7.9249     4.9538 C.3     
  27 C27           -0.3575    -7.8111     4.3948 C.3     
  28 C28           -1.5036    -5.8289     5.3947 C.3     
  29 C29           -5.9448    -2.6286     0.7458 C.3     
  30 C30           -4.6422    -4.0456    -0.8055 C.3     
  31 H31            0.3119    -0.7391    -1.5675 H       
  32 H32           -2.4475    -0.6696     1.7135 H       
  33 H33           -2.3612     1.7880     1.7250 H       
  34 H34           -3.4251    -2.3905     1.9656 H       
  35 H35           -3.6625    -1.6099     0.3897 H       
  36 H36           -4.8973    -4.0768     2.6622 H       
  37 H37           -5.5591    -5.2383     1.4918 H       
  38 H38           -3.1824    -5.9891    -0.2284 H       
  39 H39           -1.9381    -6.4364     0.9256 H       
  40 H40            2.0215    -6.2674    -1.1477 H       
  41 H41           -2.9054    -8.7729     4.2788 H       
  42 H42           -2.5437    -8.2861     5.9523 H       
  43 H43           -3.7219    -7.3608     4.9911 H       
  44 H44            0.4435    -7.1659     4.0340 H       
  45 H45           -0.1112    -8.1723     5.3933 H       
  46 H46           -0.4729    -8.6591     3.7199 H       
  47 H47           -2.4356    -5.2648     5.4320 H       
  48 H48           -1.2573    -6.1901     6.3931 H       
  49 H49           -0.7026    -5.1837     5.0338 H       
  50 H50           -5.9117    -1.8049     0.0327 H       
  51 H51           -6.8223    -3.2446     0.5488 H       
  52 H52           -6.0006    -2.2302     1.7588 H       
  53 H53           -3.6716    -4.5033    -0.9972 H       
  54 H54           -5.4254    -4.7960    -0.9134 H       
  55 H55           -4.8109    -3.2392    -1.5192 H       
@<TRIPOS>BOND
   1    1    2 ar
   2    1   20 1
   3    1    6 ar
   4    2    3 ar
   5    2   31 1
   6    3    4 ar
   7    3    7 1
   8    4    5 ar
   9    4   32 1
  10    5    6 ar
  11    5   33 1
  12    6   21 1
  13    7    8 1
  14    7   11 2
  15    8    9 1
  16    8   12 1
  17    9   10 2
  18    9   16 1
  19   10   11 1
  20   10   17 1
  21   12   13 1
  22   12   34 1
  23   12   35 1
  24   13   14 1
  25   13   29 1
  26   13   30 1
  27   14   15 1
  28   14   36 1
  29   14   37 1
  30   15   16 1
  31   15   22 am
  32   16   38 1
  33   16   39 1
  34   17   18 2
  35   17   19 1
  36   19   40 1
  37   22   23 2
  38   22   24 1
  39   24   25 1
  40   25   26 1
  41   25   27 1
  42   25   28 1
  43   26   41 1
  44   26   42 1
  45   26   43 1
  46   27   44 1
  47   27   45 1
  48   27   46 1
  49   28   47 1
  50   28   48 1
  51   28   49 1
  52   29   50 1
  53   29   51 1
  54   29   52 1
  55   30   53 1
  56   30   54 1
  57   30   55 1

#	End of record

