#	Name: ASD01811864
#	Creating user name:	WinNT
#	Creation time:	15. 06. 2019 19:27

#	Modifying user name:	WinNT
#	Modification time:	15. 06. 2019 19:27

#	Program:	/corina/corina34_cracker 3.40 0067  02.08.2006

@<TRIPOS>MOLECULE
ASD01811864
  54   58    0    0    0
SMALL
NO_CHARGES


@<TRIPOS>ATOM
   1 N1            -0.0158     1.3124     0.0093 N.ar    
   2 C2             0.0021    -0.0041     0.0020 C.ar    
   3 C3             1.1968    -0.7055    -0.0132 C.ar    
   4 C4             2.3959    -0.0149    -0.0209 C.ar    
   5 C5             1.1067     2.0194     0.0023 C.ar    
   6 C6             1.4022     3.4636     0.0068 C.2     
   7 C7             2.3561     1.3764    -0.0130 C.ar    
   8 N8             3.3288     2.3533    -0.0175 N.pl3   
   9 C9             2.7617     3.5823    -0.0058 C.2     
  10 C10            0.4245     4.5603     0.0214 C.2     
  11 O11           -0.7668     4.3132     0.0313 O.2     
  12 N12            0.8473     5.8400     0.0239 N.am    
  13 C13           -0.1275     6.9335     0.0384 C.3     
  14 O14           -0.8662     9.5479     0.8952 O.3     
  15 C15           -0.4923     9.3498    -0.4697 C.3     
  16 C16            0.5060     8.1927    -0.5611 C.3     
  17 C17           -0.5489     7.2251     1.4820 C.3     
  18 C18           -1.5064     8.4195     1.4944 C.3     
  19 O19            0.8373     7.9549    -1.9307 O.3     
  20 C20            4.7713     2.0977    -0.0324 C.3     
  21 C21            5.2309     1.8949    -1.4532 C.ar    
  22 C22            5.6497     0.4379    -3.3066 C.ar    
  23 C23            5.2286     0.6269    -2.0048 C.ar    
  24 C24            5.6487     2.9780    -2.2044 C.ar    
  25 C25            6.0701     2.7954    -3.5070 C.ar    
  26 C26            6.0743     1.5227    -4.0618 C.ar    
  27 N27            6.5023     1.3340    -5.3833 N.pl3   
  28 C28            6.9384     2.2992    -6.2241 C.2     
  29 C29            7.2561     1.7085    -7.3994 C.2     
  30 C30            7.0065     0.3375    -7.2739 C.2     
  31 N31            6.5598     0.1114    -6.0647 N.2     
  32 H32           -0.9315    -0.5470     0.0084 H       
  33 H33            1.1923    -1.7855    -0.0186 H       
  34 H34            3.3386    -0.5419    -0.0324 H       
  35 H35            3.3036     4.5165    -0.0066 H       
  36 H36            1.7971     6.0370     0.0160 H       
  37 H37           -1.0023     6.6500    -0.5466 H       
  38 H38           -1.3783     9.1128    -1.0587 H       
  39 H39           -0.0314    10.2589    -0.8560 H       
  40 H40            1.4090     8.4460    -0.0057 H       
  41 H41           -1.0507     6.3517     1.8984 H       
  42 H42            0.3328     7.4588     2.0787 H       
  43 H43           -1.7761     8.6585     2.5231 H       
  44 H44           -2.4058     8.1704     0.9312 H       
  45 H45            1.2391     8.7136    -2.3756 H       
  46 H46            5.2957     2.9493     0.4011 H       
  47 H47            4.9877     1.2026     0.5508 H       
  48 H48            5.6481    -0.5528    -3.7367 H       
  49 H49            4.8976    -0.2165    -1.4170 H       
  50 H50            5.6452     3.9678    -1.7723 H       
  51 H51            6.3956     3.6418    -4.0936 H       
  52 H52            7.0183     3.3523    -5.9983 H       
  53 H53            7.6355     2.2073    -8.2790 H       
  54 H54            7.1598    -0.4066    -8.0415 H       
@<TRIPOS>BOND
   1    1    2 ar
   2    1    5 ar
   3    2    3 ar
   4    2   32 1
   5    3    4 ar
   6    3   33 1
   7    4    7 ar
   8    4   34 1
   9    5    7 ar
  10    5    6 1
  11    6    9 2
  12    6   10 1
  13    7    8 1
  14    8    9 1
  15    8   20 1
  16    9   35 1
  17   10   11 2
  18   10   12 am
  19   12   13 1
  20   12   36 1
  21   13   17 1
  22   13   16 1
  23   13   37 1
  24   14   15 1
  25   14   18 1
  26   15   16 1
  27   15   38 1
  28   15   39 1
  29   16   19 1
  30   16   40 1
  31   17   18 1
  32   17   41 1
  33   17   42 1
  34   18   43 1
  35   18   44 1
  36   19   45 1
  37   20   21 1
  38   20   46 1
  39   20   47 1
  40   21   24 ar
  41   21   23 ar
  42   22   23 ar
  43   22   26 ar
  44   22   48 1
  45   23   49 1
  46   24   25 ar
  47   24   50 1
  48   25   26 ar
  49   25   51 1
  50   26   27 1
  51   27   28 1
  52   27   31 1
  53   28   29 2
  54   28   52 1
  55   29   30 1
  56   29   53 1
  57   30   31 2
  58   30   54 1

#	End of record

