#	Name: ASD01238013
#	Creating user name:	WinNT
#	Creation time:	15. 06. 2019 19:15

#	Modifying user name:	WinNT
#	Modification time:	15. 06. 2019 19:15

#	Program:	/corina/corina34_cracker 3.40 0067  02.08.2006

@<TRIPOS>MOLECULE
ASD01238013
  61   64    0    0    0
SMALL
NO_CHARGES


@<TRIPOS>ATOM
   1 C1            -0.0165     1.3625     0.0095 C.2     
   2 C2             0.0021    -0.0041     0.0020 C.2     
   3 C3             1.3421    -0.5615    -0.0136 C.2     
   4 C4             2.2880     0.3851    -0.0176 C.2     
   5 S5             1.5675     1.9864    -0.0022 S.3     
   6 C6             3.7783     0.1044    -0.0329 C.3     
   7 C7             4.0084    -1.3536     0.3743 C.3     
   8 C8             3.0969    -2.2557    -0.4630 C.3     
   9 C9             1.6455    -2.0512    -0.0242 C.3     
  10 C10           -1.2121    -0.8261     0.0098 C.2     
  11 O11           -1.7263    -1.1619    -1.0410 O.2     
  12 N12           -1.7587    -1.2097     1.1805 N.am    
  13 N13           -1.1679     2.1352     0.0194 N.am    
  14 C14           -1.0770     3.4798     0.0263 C.2     
  15 O15            0.0118     4.0141     0.0238 O.2     
  16 C16           -2.3284     4.3195     0.0370 C.3     
  17 N17           -1.9642     5.7385     0.0429 N.pl3   
  18 N18           -1.7648     6.5453    -1.0874 N.2     
  19 C19           -1.4545     7.7522    -0.6812 C.2     
  20 C20           -1.4465     7.7508     0.7117 C.2     
  21 C21           -1.1489     8.9037     1.6377 C.3     
  22 C22           -1.6601     8.5436     3.0381 C.3     
  23 C23           -1.1464     7.1551     3.4285 C.3     
  24 C24           -1.8531     6.0905     2.5805 C.3     
  25 C25           -1.7674     6.5004     1.1315 C.2     
  26 C26           -1.1577     8.9350    -1.5667 C.3     
  27 F27           -1.3743     8.5829    -2.9032 F       
  28 F28           -1.9991     9.9982    -1.2222 F       
  29 F29            0.1760     9.3218    -1.3967 F       
  30 C30           -2.9718    -2.0310     1.1882 C.3     
  31 C31           -3.3800    -2.3241     2.6333 C.3     
  32 C32           -4.6469    -3.1818     2.6414 C.3     
  33 N33           -5.0389    -3.4633     4.0289 N.3     
  34 H34            4.1712     0.2701    -1.0360 H       
  35 H35            4.2820     0.7649     0.6730 H       
  36 H36            5.0499    -1.6218     0.1966 H       
  37 H37            3.7737    -1.4783     1.4314 H       
  38 H38            3.1977    -1.9975    -1.5172 H       
  39 H39            3.3793    -3.2979    -0.3138 H       
  40 H40            1.5069    -2.4594     0.9770 H       
  41 H41            0.9771    -2.5552    -0.7222 H       
  42 H42           -1.3488    -0.9420     2.0179 H       
  43 H43           -2.0387     1.7079     0.0214 H       
  44 H44           -2.9208     4.1002    -0.8513 H       
  45 H45           -2.9120     4.0905     0.9286 H       
  46 H46           -0.0735     9.0781     1.6731 H       
  47 H47           -1.6552     9.8009     1.2815 H       
  48 H48           -1.2997     9.2796     3.7567 H       
  49 H49           -2.7501     8.5406     3.0371 H       
  50 H50           -0.0716     7.1034     3.2547 H       
  51 H51           -1.3527     6.9750     4.4835 H       
  52 H52           -1.3655     5.1259     2.7212 H       
  53 H53           -2.8996     6.0201     2.8771 H       
  54 H54           -3.7766    -1.4951     0.6849 H       
  55 H55           -2.7788    -2.9691     0.6678 H       
  56 H56           -2.5752    -2.8600     3.1366 H       
  57 H57           -3.5730    -1.3860     3.1538 H       
  58 H58           -5.4517    -2.6460     2.1381 H       
  59 H59           -4.4539    -4.1199     2.1210 H       
  60 H60           -5.1609    -2.6083     4.5507 H       
  61 H61           -5.8738    -4.0289     4.0612 H       
@<TRIPOS>BOND
   1    1    2 2
   2    1    5 1
   3    1   13 1
   4    2    3 1
   5    2   10 1
   6    3    4 2
   7    3    9 1
   8    4    5 1
   9    4    6 1
  10    6    7 1
  11    6   34 1
  12    6   35 1
  13    7    8 1
  14    7   36 1
  15    7   37 1
  16    8    9 1
  17    8   38 1
  18    8   39 1
  19    9   40 1
  20    9   41 1
  21   10   11 2
  22   10   12 am
  23   12   30 1
  24   12   42 1
  25   13   14 am
  26   13   43 1
  27   14   15 2
  28   14   16 1
  29   16   17 1
  30   16   44 1
  31   16   45 1
  32   17   18 1
  33   17   25 1
  34   18   19 2
  35   19   20 1
  36   19   26 1
  37   20   21 1
  38   20   25 2
  39   21   22 1
  40   21   46 1
  41   21   47 1
  42   22   23 1
  43   22   48 1
  44   22   49 1
  45   23   24 1
  46   23   50 1
  47   23   51 1
  48   24   25 1
  49   24   52 1
  50   24   53 1
  51   26   27 1
  52   26   28 1
  53   26   29 1
  54   30   31 1
  55   30   54 1
  56   30   55 1
  57   31   32 1
  58   31   56 1
  59   31   57 1
  60   32   33 1
  61   32   58 1
  62   32   59 1
  63   33   60 1
  64   33   61 1

#	End of record

