#	Name: ASD04940013
#	Creating user name:	WinNT
#	Creation time:	15. 06. 2019 20:56

#	Modifying user name:	WinNT
#	Modification time:	15. 06. 2019 20:56

#	Program:	/corina/corina34_cracker 3.40 0067  02.08.2006

@<TRIPOS>MOLECULE
ASD04940013
  53   56    0    0    0
SMALL
NO_CHARGES


@<TRIPOS>ATOM
   1 C1            -0.0166     1.3736     0.0096 C.ar    
   2 C2             0.0021    -0.0041     0.0020 C.ar    
   3 C3             1.2096    -0.6868    -0.0132 C.ar    
   4 C4             2.4043    -0.0005    -0.0209 C.ar    
   5 C5             2.4071     1.3912    -0.0135 C.ar    
   6 C6             1.1841     2.0802     0.0019 C.ar    
   7 N7             3.4235     2.3258    -0.0177 N.pl3   
   8 C8             2.9120     3.5878    -0.0057 C.2     
   9 C9             1.5208     3.5161     0.0064 C.2     
  10 C10            3.7047     4.8323    -0.0061 C.ar    
  11 C11            4.7939     4.9705    -0.8702 C.ar    
  12 C12            5.5299     6.1369    -0.8654 C.ar    
  13 C13            5.1922     7.1686    -0.0072 C.ar    
  14 C14            4.1147     7.0387     0.8514 C.ar    
  15 C15            3.3661     5.8804     0.8535 C.ar    
  16 C16            0.6150     4.6004     0.0202 C.2     
  17 O17            1.0329     5.7408     0.0220 O.2     
  18 C18           -0.8696     4.3418     0.0327 C.3     
  19 N19           -1.5895     5.6223     0.0457 N.3     
  20 C20           -3.0269     5.4204    -0.1801 C.3     
  21 C21           -3.6923     6.7538    -0.4047 C.2     
  22 N22           -5.0190     6.8147    -0.6340 N.am    
  23 C23           -1.3505     6.3478     1.3005 C.3     
  24 O24           -3.0339     7.7720    -0.3792 O.2     
  25 C25           -5.7926     8.0429    -0.8680 C.3     
  26 C26           -7.2669     7.6271    -1.0553 C.3     
  27 C27           -7.3295     6.2441    -0.3547 C.3     
  28 C28           -5.9338     5.6604    -0.6979 C.3     
  29 H29           -0.9577     1.9033     0.0169 H       
  30 H30           -0.9271    -0.5546     0.0083 H       
  31 H31            1.2132    -1.7668    -0.0187 H       
  32 H32            3.3385    -0.5424    -0.0324 H       
  33 H33            4.3699     2.1131    -0.0278 H       
  34 H34            5.0590     4.1659    -1.5400 H       
  35 H35            6.3721     6.2451    -1.5328 H       
  36 H36            5.7726     8.0794    -0.0073 H       
  37 H37            3.8571     7.8479     1.5187 H       
  38 H38            2.5227     5.7821     1.5209 H       
  39 H39           -1.1476     3.7777    -0.8576 H       
  40 H40           -1.1311     3.7689     0.9223 H       
  41 H41           -3.1718     4.7897    -1.0572 H       
  42 H42           -3.4673     4.9368     0.6918 H       
  43 H43           -0.2840     6.5454     1.4085 H       
  44 H44           -1.8950     7.2919     1.2836 H       
  45 H45           -1.6952     5.7446     2.1403 H       
  46 H46           -5.7012     8.7079    -0.0091 H       
  47 H47           -5.4314     8.5429    -1.7666 H       
  48 H48           -7.9331     8.3377    -0.5661 H       
  49 H49           -7.5100     7.5346    -2.1138 H       
  50 H50           -7.4556     6.3569     0.7221 H       
  51 H51           -8.1233     5.6279    -0.7770 H       
  52 H52           -5.9350     5.2325    -1.7004 H       
  53 H53           -5.6468     4.9078     0.0364 H       
@<TRIPOS>BOND
   1    1    2 ar
   2    1    6 ar
   3    1   29 1
   4    2    3 ar
   5    2   30 1
   6    3    4 ar
   7    3   31 1
   8    4    5 ar
   9    4   32 1
  10    5    7 1
  11    5    6 ar
  12    6    9 1
  13    7    8 1
  14    7   33 1
  15    8    9 2
  16    8   10 1
  17    9   16 1
  18   10   11 ar
  19   10   15 ar
  20   11   12 ar
  21   11   34 1
  22   12   13 ar
  23   12   35 1
  24   13   14 ar
  25   13   36 1
  26   14   15 ar
  27   14   37 1
  28   15   38 1
  29   16   17 2
  30   16   18 1
  31   18   19 1
  32   18   39 1
  33   18   40 1
  34   19   20 1
  35   19   23 1
  36   20   21 1
  37   20   41 1
  38   20   42 1
  39   21   22 am
  40   21   24 2
  41   22   25 1
  42   22   28 1
  43   23   43 1
  44   23   44 1
  45   23   45 1
  46   25   26 1
  47   25   46 1
  48   25   47 1
  49   26   27 1
  50   26   48 1
  51   26   49 1
  52   27   28 1
  53   27   50 1
  54   27   51 1
  55   28   52 1
  56   28   53 1

#	End of record

