#	Name: ASD07930123
#	Creating user name:	WinNT
#	Creation time:	15. 06. 2019 21:11

#	Modifying user name:	WinNT
#	Modification time:	15. 06. 2019 21:11

#	Program:	/corina/corina34_cracker 3.40 0067  02.08.2006

@<TRIPOS>MOLECULE
ASD07930123
  60   64    0    0    0
SMALL
NO_CHARGES


@<TRIPOS>ATOM
   1 C1            -0.0180     1.4754     0.0102 C.2     
   2 C2             0.0021    -0.0041     0.0020 C.2     
   3 N3             1.1814     2.1509     0.0023 N.am    
   4 N4             1.1194    -0.6400     0.4288 N.am    
   5 C5             2.2493     0.1650     0.9143 C.3     
   6 C6             2.4261     1.3707    -0.0208 C.3     
   7 C7            -1.2008     2.1485     0.0195 C.2     
   8 C8            -1.2247     3.5486     0.0291 C.2     
   9 C9            -0.0458     4.2425     0.0303 C.2     
  10 C10            1.2139     3.4948     0.0143 C.2     
  11 O11           -0.9642    -0.6358    -0.3794 O.2     
  12 O12            2.2807     4.0852     0.0118 O.2     
  13 C13            0.4239     6.4402     1.0348 C.2     
  14 N14            0.2552     7.6848     0.6804 N.2     
  15 C15           -0.3161     7.7283    -0.5326 C.2     
  16 C16           -0.5113     6.4636    -0.9513 C.2     
  17 N17           -0.0431     5.6402     0.0404 N.pl3   
  18 C18           -0.6774     8.9771    -1.2948 C.3     
  19 C19            1.2002    -2.1026     0.4064 C.3     
  20 C20            1.7676    -2.5615    -0.9383 C.3     
  21 O21            3.1161    -2.1063    -1.0666 O.3     
  22 C22            7.1542    -1.7915    -3.5320 C.3     
  23 C23            7.4213    -1.4615    -2.0481 C.3     
  24 C24            5.9986    -1.2143    -1.5029 C.3     
  25 C25            5.0847    -2.0199    -2.4012 C.ar    
  26 C26            3.7709    -2.4315    -2.2128 C.ar    
  27 C27            3.1267    -3.1729    -3.1903 C.ar    
  28 C28            3.7927    -3.5036    -4.3548 C.ar    
  29 C29            5.1005    -3.0942    -4.5428 C.ar    
  30 C30            5.7482    -2.3514    -3.5665 C.ar    
  31 C31            5.8909    -1.7059    -0.0580 C.3     
  32 F32            6.7882    -0.9936     0.7450 F       
  33 F33            4.5871    -1.5039     0.4074 F       
  34 F34            6.1990    -3.0695    -0.0051 F       
  35 C35            5.6490     0.2729    -1.5863 C.3     
  36 F36            5.7498    -3.4188    -5.6823 F       
  37 H37            2.0426     0.5136     1.9261 H       
  38 H38            3.1572    -0.4381     0.9099 H       
  39 H39            2.6247     1.0242    -1.0350 H       
  40 H40            3.2543     1.9881     0.3270 H       
  41 H41           -2.1297     1.5976     0.0190 H       
  42 H42           -2.1668     4.0767     0.0353 H       
  43 H43            0.8650     6.1025     1.9610 H       
  44 H44           -0.9521     6.1566    -1.8883 H       
  45 H45            0.1651     9.2797    -1.9167 H       
  46 H46           -1.5430     8.7793    -1.9270 H       
  47 H47           -0.9156     9.7756    -0.5921 H       
  48 H48            1.8522    -2.4428     1.2110 H       
  49 H49            0.2042    -2.5236     0.5432 H       
  50 H50            1.7451    -3.6500    -0.9897 H       
  51 H51            1.1658    -2.1470    -1.7471 H       
  52 H52            7.2162    -0.8873    -4.1376 H       
  53 H53            7.8665    -2.5357    -3.8882 H       
  54 H54            7.8891    -2.3057    -1.5416 H       
  55 H55            8.0334    -0.5645    -1.9547 H       
  56 H56            2.1056    -3.4922    -3.0420 H       
  57 H57            3.2926    -4.0817    -5.1178 H       
  58 H58            5.7186     0.6049    -2.6222 H       
  59 H59            4.6334     0.4284    -1.2224 H       
  60 H60            6.3461     0.8449    -0.9739 H       
@<TRIPOS>BOND
   1    1    2 1
   2    1    3 1
   3    1    7 2
   4    2    4 am
   5    2   11 2
   6    3    6 1
   7    3   10 am
   8    4    5 1
   9    4   19 1
  10    5    6 1
  11    5   37 1
  12    5   38 1
  13    6   39 1
  14    6   40 1
  15    7    8 1
  16    7   41 1
  17    8    9 2
  18    8   42 1
  19    9   10 1
  20    9   17 1
  21   10   12 2
  22   13   14 2
  23   13   17 1
  24   13   43 1
  25   14   15 1
  26   15   16 2
  27   15   18 1
  28   16   17 1
  29   16   44 1
  30   18   45 1
  31   18   46 1
  32   18   47 1
  33   19   20 1
  34   19   48 1
  35   19   49 1
  36   20   21 1
  37   20   50 1
  38   20   51 1
  39   21   26 1
  40   22   23 1
  41   22   30 1
  42   22   52 1
  43   22   53 1
  44   23   24 1
  45   23   54 1
  46   23   55 1
  47   24   25 1
  48   24   31 1
  49   24   35 1
  50   25   26 ar
  51   25   30 ar
  52   26   27 ar
  53   27   28 ar
  54   27   56 1
  55   28   29 ar
  56   28   57 1
  57   29   30 ar
  58   29   36 1
  59   31   32 1
  60   31   33 1
  61   31   34 1
  62   35   58 1
  63   35   59 1
  64   35   60 1

#	End of record

