#	Name: ASD01900831
#	Creating user name:	WinNT
#	Creation time:	15. 06. 2019 19:52

#	Modifying user name:	WinNT
#	Modification time:	15. 06. 2019 19:52

#	Program:	/corina/corina34_cracker 3.40 0067  02.08.2006

@<TRIPOS>MOLECULE
ASD01900831
  58   62    0    0    0
SMALL
NO_CHARGES


@<TRIPOS>ATOM
   1 C1             3.7356     0.5240     0.8795 C.ar    
   2 C2             4.3875    -0.6897     0.8204 C.ar    
   3 C3             5.7249    -0.7527     0.4571 C.ar    
   4 C4             6.4264     0.4003     0.1562 C.ar    
   5 C5             5.7877     1.6268     0.2170 C.ar    
   6 C6             4.4281     1.6927     0.5707 C.ar    
   7 N7             6.4560     2.8147    -0.0577 N.pl3   
   8 C8             5.6927     3.9496    -0.5889 C.3     
   9 N9             4.4254     4.0892     0.1295 N.am    
  10 C10            3.7752     3.0123     0.6132 C.2     
  11 C11            3.8788     5.3647     0.3181 C.ar    
  12 C12            4.3916     6.2020     1.3001 C.ar    
  13 C13            3.8524     7.4597     1.4852 C.ar    
  14 C14            2.7987     7.8868     0.6905 C.ar    
  15 C15            2.2856     7.0508    -0.2904 C.ar    
  16 C16            2.8275     5.7950    -0.4805 C.ar    
  17 O17            2.2682     9.1254     0.8733 O.3     
  18 O18            2.6584     3.1291     1.0806 O.2     
  19 Br19           6.5959    -2.4291     0.3734 Br      
  20 C20            6.5142     5.2319    -0.4257 C.3     
  21 C21            5.4134     3.7196    -2.0768 C.3     
  22 C22            4.6771     4.9348    -2.6455 C.3     
  23 N23            5.5001     6.1371    -2.4633 N.3     
  24 C24            5.7451     6.4038    -1.0402 C.3     
  25 C25            4.8862     7.2996    -3.1186 C.3     
  26 C26            5.7023     8.5317    -2.8236 C.ar    
  27 C27            6.7491     8.8829    -3.6553 C.ar    
  28 C28            7.4977    10.0130    -3.3847 C.ar    
  29 C29            7.1993    10.7922    -2.2825 C.ar    
  30 C30            6.1519    10.4415    -1.4513 C.ar    
  31 C31            5.4005     9.3138    -1.7244 C.ar    
  32 C32            1.1936     9.5046     0.0111 C.3     
  33 F33            0.1115     8.6397     0.2065 F       
  34 F34            0.8016    10.8154     0.3034 F       
  35 F35            1.6156     9.4300    -1.3206 F       
  36 H36            2.6933     0.5678     1.1592 H       
  37 H37            3.8533    -1.5975     1.0590 H       
  38 H38            7.4677     0.3442    -0.1246 H       
  39 H39            7.4102     2.8917     0.0988 H       
  40 H40            5.2117     5.8694     1.9192 H       
  41 H41            4.2509     8.1108     2.2492 H       
  42 H42            1.4650     7.3838    -0.9086 H       
  43 H43            2.4311     5.1460    -1.2474 H       
  44 H44            6.6840     5.4233     0.6339 H       
  45 H45            7.4717     5.1181    -0.9340 H       
  46 H46            6.3559     3.5840    -2.6074 H       
  47 H47            4.7954     2.8300    -2.1979 H       
  48 H48            4.4891     4.7810    -3.7081 H       
  49 H49            3.7285     5.0616    -2.1236 H       
  50 H50            4.7927     6.5238    -0.5239 H       
  51 H51            6.3315     7.3168    -0.9375 H       
  52 H52            4.8538     7.1346    -4.1956 H       
  53 H53            3.8727     7.4362    -2.7414 H       
  54 H54            6.9823     8.2741    -4.5164 H       
  55 H55            8.3160    10.2870    -4.0341 H       
  56 H56            7.7846    11.6747    -2.0707 H       
  57 H57            5.9189    11.0501    -0.5901 H       
  58 H58            4.5799     9.0418    -1.0771 H       
@<TRIPOS>BOND
   1    1    2 ar
   2    1    6 ar
   3    1   36 1
   4    2    3 ar
   5    2   37 1
   6    3    4 ar
   7    3   19 1
   8    4    5 ar
   9    4   38 1
  10    5    7 1
  11    5    6 ar
  12    6   10 1
  13    7    8 1
  14    7   39 1
  15    8    9 1
  16    8   21 1
  17    8   20 1
  18    9   10 am
  19    9   11 1
  20   10   18 2
  21   11   12 ar
  22   11   16 ar
  23   12   13 ar
  24   12   40 1
  25   13   14 ar
  26   13   41 1
  27   14   15 ar
  28   14   17 1
  29   15   16 ar
  30   15   42 1
  31   16   43 1
  32   17   32 1
  33   20   24 1
  34   20   44 1
  35   20   45 1
  36   21   22 1
  37   21   46 1
  38   21   47 1
  39   22   23 1
  40   22   48 1
  41   22   49 1
  42   23   24 1
  43   23   25 1
  44   24   50 1
  45   24   51 1
  46   25   26 1
  47   25   52 1
  48   25   53 1
  49   26   27 ar
  50   26   31 ar
  51   27   28 ar
  52   27   54 1
  53   28   29 ar
  54   28   55 1
  55   29   30 ar
  56   29   56 1
  57   30   31 ar
  58   30   57 1
  59   31   58 1
  60   32   33 1
  61   32   34 1
  62   32   35 1

#	End of record

