#	Name: ASD06770013
#	Creating user name:	WinNT
#	Creation time:	15. 06. 2019 21:08

#	Modifying user name:	WinNT
#	Modification time:	15. 06. 2019 21:08

#	Program:	/corina/corina34_cracker 3.40 0067  02.08.2006

@<TRIPOS>MOLECULE
ASD06770013
  34   34    0    0    0
SMALL
NO_CHARGES


@<TRIPOS>ATOM
   1 C1            -0.1478     1.2254    -0.0483 C.3     
   2 C2            -0.0153    -0.2982    -0.0045 C.3     
   3 C3             0.7562    -0.7071     1.2519 C.3     
   4 C4             2.1491    -0.0745     1.2235 C.3     
   5 C5             2.0165     1.4491     1.1797 C.3     
   6 C6             1.2450     1.8580    -0.0767 C.3     
   7 C7            -0.9077     1.6281    -1.2858 C.2     
   8 O8            -1.3042     0.7800    -2.0568 O.2     
   9 N9            -1.1467     2.9308    -1.5358 N.am    
  10 N10           -1.8355     3.2958    -2.6575 N.3     
  11 O11            2.8697    -0.4564     2.3970 O.3     
  12 C12            4.2518    -0.7358     2.1651 C.3     
  13 C13            5.0651     0.5509     2.3200 C.3     
  14 C14            4.7396    -1.7726     3.1790 C.3     
  15 H15           -0.6850     1.5690     0.8357 H       
  16 H16           -1.0075    -0.7488     0.0157 H       
  17 H17            0.5219    -0.6417    -0.8886 H       
  18 H18            0.2191    -0.3635     2.1360 H       
  19 H19            0.8507    -1.7925     1.2831 H       
  20 H20            2.6862    -0.4181     0.3394 H       
  21 H21            1.4794     1.7926     2.0638 H       
  22 H22            3.0088     1.8997     1.1595 H       
  23 H23            1.7821     1.5144    -0.9608 H       
  24 H24            1.1505     2.9434    -0.1079 H       
  25 H25           -0.8296     3.6091    -0.9192 H       
  26 H26           -2.7347     2.8394    -2.6942 H       
  27 H27           -1.9365     4.2984    -2.7096 H       
  28 H28            4.3791    -1.1268     1.1557 H       
  29 H29            4.8634     0.9930     3.2956 H       
  30 H30            6.1275     0.3213     2.2377 H       
  31 H31            4.7839     1.2550     1.5368 H       
  32 H32            4.1601    -2.6892     3.0687 H       
  33 H33            5.7938    -1.9857     3.0022 H       
  34 H34            4.6123    -1.3815     4.1885 H       
@<TRIPOS>BOND
   1    1    2 1
   2    1    6 1
   3    1    7 1
   4    1   15 1
   5    2    3 1
   6    2   16 1
   7    2   17 1
   8    3    4 1
   9    3   18 1
  10    3   19 1
  11    4    5 1
  12    4   11 1
  13    4   20 1
  14    5    6 1
  15    5   21 1
  16    5   22 1
  17    6   23 1
  18    6   24 1
  19    7    8 2
  20    7    9 am
  21    9   10 1
  22    9   25 1
  23   10   26 1
  24   10   27 1
  25   11   12 1
  26   12   13 1
  27   12   14 1
  28   12   28 1
  29   13   29 1
  30   13   30 1
  31   13   31 1
  32   14   32 1
  33   14   33 1
  34   14   34 1

#	End of record

