#	Name: ASD05740149
#	Creating user name:	WinNT
#	Creation time:	15. 06. 2019 21:02

#	Modifying user name:	WinNT
#	Modification time:	15. 06. 2019 21:02

#	Program:	/corina/corina34_cracker 3.40 0067  02.08.2006

@<TRIPOS>MOLECULE
ASD05740149
  65   70    0    0    0
SMALL
NO_CHARGES


@<TRIPOS>ATOM
   1 N1             0.2260     0.2933    -3.0701 N.3     
   2 C2            -0.4285     1.1386    -2.0618 C.3     
   3 C3            -1.9113     0.7695    -1.9752 C.3     
   4 N4            -2.0400    -0.6530    -1.6295 N.3     
   5 C5            -1.3855    -1.4983    -2.6378 C.3     
   6 C6             0.0973    -1.1292    -2.7244 C.3     
   7 C7            -3.3834    -1.0109    -1.4705 C.ar    
   8 C8            -3.7196    -2.3175    -1.1410 C.ar    
   9 C9            -5.0452    -2.6706    -0.9842 C.ar    
  10 C10           -6.0422    -1.7194    -1.1564 C.ar    
  11 C11           -5.7061    -0.4130    -1.4864 C.ar    
  12 C12           -4.3802    -0.0583    -1.6367 C.ar    
  13 N13           -7.3870    -2.0778    -0.9978 N.pl3   
  14 C14           -7.7415    -3.0347    -0.0670 C.ar    
  15 N15           -6.8045    -3.5180     0.7414 N.ar    
  16 N16           -9.0042    -3.4319    -0.0106 N.ar    
  17 C17           -9.3802    -4.3493     0.8711 C.ar    
  18 C18           -8.4099    -4.8899     1.7433 C.ar    
  19 C19           -7.0901    -4.4342     1.6491 C.ar    
  20 N20          -10.6791    -4.7802     0.9539 N.am    
  21 C21          -11.0430    -5.7107     1.8541 C.2     
  22 C22          -10.1153    -6.2825     2.7481 C.2     
  23 C23           -8.8118    -5.8999     2.7176 C.2     
  24 C24          -11.6852    -4.2186     0.0491 C.3     
  25 O25          -12.2070    -6.0692     1.8984 O.2     
  26 C26            1.6363     0.6690    -3.2370 C.3     
  27 C27          -12.2904    -5.3417    -0.7907 C.3     
  28 C28          -13.4826    -4.7737    -1.5699 C.3     
  29 C29          -14.6059    -4.4729    -0.5797 C.3     
  30 C30          -14.0927    -3.6427     0.5676 C.ar    
  31 C31          -12.7521    -3.5293     0.8589 C.ar    
  32 C32          -15.0256    -2.9743     1.3505 C.ar    
  33 C33          -14.6196    -2.2011     2.4181 C.ar    
  34 C34          -13.2732    -2.0900     2.7127 C.ar    
  35 C35          -12.3453    -2.7518     1.9358 C.ar    
  36 H36            0.0431     0.9794    -1.0921 H       
  37 H37           -0.3305     2.1862    -2.3465 H       
  38 H38           -2.3926     1.3754    -1.2075 H       
  39 H39           -2.3889     0.9546    -2.9374 H       
  40 H40           -1.4834    -2.5459    -2.3530 H       
  41 H41           -1.8571    -1.3391    -3.6074 H       
  42 H42            0.5787    -1.7350    -3.4921 H       
  43 H43            0.5749    -1.3142    -1.7622 H       
  44 H44           -2.9443    -3.0574    -1.0077 H       
  45 H45           -5.3067    -3.6866    -0.7279 H       
  46 H46           -6.4816     0.3265    -1.6210 H       
  47 H47           -4.1188     0.9577    -1.8933 H       
  48 H48           -8.0693    -1.6540    -1.5417 H       
  49 H49           -6.3222    -4.8259     2.2998 H       
  50 H50          -10.4414    -7.0271     3.4592 H       
  51 H51           -8.0919    -6.3312     3.3974 H       
  52 H52          -11.2101    -3.4925    -0.6105 H       
  53 H53            2.1589     0.5493    -2.2880 H       
  54 H54            2.0966     0.0278    -3.9887 H       
  55 H55            1.6997     1.7087    -3.5581 H       
  56 H56          -11.5437    -5.7220    -1.4878 H       
  57 H57          -12.6281    -6.1469    -0.1383 H       
  58 H58          -13.1856    -3.8562    -2.0779 H       
  59 H59          -13.8247    -5.5051    -2.3021 H       
  60 H60          -15.3994    -3.9280    -1.0910 H       
  61 H61          -15.0057    -5.4108    -0.1940 H       
  62 H62          -16.0774    -3.0606     1.1211 H       
  63 H63          -15.3508    -1.6844     3.0220 H       
  64 H64          -12.9493    -1.4873     3.5483 H       
  65 H65          -11.2939    -2.6648     2.1667 H       
@<TRIPOS>BOND
   1    1    2 1
   2    1   26 1
   3    1    6 1
   4    2    3 1
   5    2   36 1
   6    2   37 1
   7    3    4 1
   8    3   38 1
   9    3   39 1
  10    4    5 1
  11    4    7 1
  12    5    6 1
  13    5   40 1
  14    5   41 1
  15    6   42 1
  16    6   43 1
  17    7    8 ar
  18    7   12 ar
  19    8    9 ar
  20    8   44 1
  21    9   10 ar
  22    9   45 1
  23   10   11 ar
  24   10   13 1
  25   11   12 ar
  26   11   46 1
  27   12   47 1
  28   13   14 1
  29   13   48 1
  30   14   15 ar
  31   14   16 ar
  32   15   19 ar
  33   16   17 ar
  34   17   18 ar
  35   17   20 1
  36   18   19 ar
  37   18   23 1
  38   19   49 1
  39   20   21 am
  40   20   24 1
  41   21   22 1
  42   21   25 2
  43   22   23 2
  44   22   50 1
  45   23   51 1
  46   24   27 1
  47   24   31 1
  48   24   52 1
  49   26   53 1
  50   26   54 1
  51   26   55 1
  52   27   28 1
  53   27   56 1
  54   27   57 1
  55   28   29 1
  56   28   58 1
  57   28   59 1
  58   29   30 1
  59   29   60 1
  60   29   61 1
  61   30   31 ar
  62   30   32 ar
  63   31   35 ar
  64   32   33 ar
  65   32   62 1
  66   33   34 ar
  67   33   63 1
  68   34   35 ar
  69   34   64 1
  70   35   65 1

#	End of record

