#	Name: ASD01940619
#	Creating user name:	WinNT
#	Creation time:	15. 06. 2019 20:12

#	Modifying user name:	WinNT
#	Modification time:	15. 06. 2019 20:12

#	Program:	/corina/corina34_cracker 3.40 0067  02.08.2006

@<TRIPOS>MOLECULE
ASD01940619
  40   42    0    0    0
SMALL
NO_CHARGES


@<TRIPOS>ATOM
   1 C1             0.3460     0.9741     1.1870 C.ar    
   2 C2            -0.1462     0.2359     0.1264 C.ar    
   3 C3             0.6345     0.0263    -0.9976 C.ar    
   4 C4             1.9133     0.5557    -1.0648 C.ar    
   5 C5             2.4127     1.2983    -0.0030 C.ar    
   6 C6             1.6247     1.5078     1.1276 C.ar    
   7 N7             2.1233     2.2568     2.2020 N.am    
   8 S8             1.7282     1.8408     3.7554 S.o2    
   9 C9             2.3500     0.1471     3.9426 C.3     
  10 O10            2.4788     2.7394     4.5605 O.2     
  11 O11            0.3073     1.8550     3.7713 O.2     
  12 F12            0.1487    -0.6961    -2.0307 F       
  13 F13            2.6737     0.3493    -2.1622 F       
  14 N14            3.7059     1.8348    -0.0674 N.pl3   
  15 C15            4.8108     1.0402     0.2622 C.ar    
  16 C16            6.0798     1.6050     0.3232 C.ar    
  17 C17            4.6384    -0.3104     0.5336 C.ar    
  18 C18            5.7279    -1.0943     0.8591 C.ar    
  19 C19            6.9967    -0.5319     0.9146 C.ar    
  20 C20            7.1694     0.8210     0.6483 C.ar    
  21 Cl21           6.2948     3.2952    -0.0097 Cl      
  22 C22            2.0358    -0.5802     5.2515 C.3     
  23 C23            1.3212    -0.9852     3.9606 C.3     
  24 S24            8.3863    -1.5322     1.3305 S.3     
  25 C25            9.7677    -0.3582     1.2676 C.3     
  26 H26           -0.2674     1.1390     2.0604 H       
  27 H27           -1.1423    -0.1787     0.1752 H       
  28 H28            2.7000     3.0188     2.0357 H       
  29 H29            3.3129    -0.0548     3.4733 H       
  30 H30            3.8355     2.7566    -0.3404 H       
  31 H31            3.6520    -0.7481     0.4905 H       
  32 H32            5.5932    -2.1447     1.0708 H       
  33 H33            8.1559     1.2584     0.6915 H       
  34 H34            2.7918    -1.2609     5.6431 H       
  35 H35            1.4554    -0.0410     6.0001 H       
  36 H36            0.2707    -0.7124     3.8600 H       
  37 H37            1.6071    -1.9323     3.5030 H       
  38 H38            9.8404     0.0640     0.2653 H       
  39 H39            9.5973     0.4423     1.9875 H       
  40 H40           10.6955    -0.8754     1.5121 H       
@<TRIPOS>BOND
   1    1    2 ar
   2    1    6 ar
   3    1   26 1
   4    2    3 ar
   5    2   27 1
   6    3    4 ar
   7    3   12 1
   8    4    5 ar
   9    4   13 1
  10    5    6 ar
  11    5   14 1
  12    6    7 1
  13    7    8 am
  14    7   28 1
  15    8    9 1
  16    8   10 2
  17    8   11 2
  18    9   22 1
  19    9   23 1
  20    9   29 1
  21   14   15 1
  22   14   30 1
  23   15   16 ar
  24   15   17 ar
  25   16   21 1
  26   16   20 ar
  27   17   18 ar
  28   17   31 1
  29   18   19 ar
  30   18   32 1
  31   19   20 ar
  32   19   24 1
  33   20   33 1
  34   22   23 1
  35   22   34 1
  36   22   35 1
  37   23   36 1
  38   23   37 1
  39   24   25 1
  40   25   38 1
  41   25   39 1
  42   25   40 1

#	End of record

