#	Name: ASD00431479
#	Creating user name:	WinNT
#	Creation time:	15. 06. 2019 18:35

#	Modifying user name:	WinNT
#	Modification time:	15. 06. 2019 18:35

#	Program:	/corina/corina34_cracker 3.40 0067  02.08.2006

@<TRIPOS>MOLECULE
ASD00431479
  54   58    0    0    0
SMALL
NO_CHARGES


@<TRIPOS>ATOM
   1 C1            -0.1939     1.6254     0.1241 C.2     
   2 N2            -0.1454     0.2812     0.0989 N.am    
   3 C3             1.1264    -0.1568     0.0796 C.2     
   4 C4             2.0281     1.0144     0.0933 C.ar    
   5 C5             3.4043     1.1764     0.0845 C.ar    
   6 C6             3.9461     2.4521     0.1036 C.ar    
   7 C7             3.1234     3.5626     0.1314 C.ar    
   8 C8             1.7451     3.4158     0.1404 C.ar    
   9 C9             1.1893     2.1467     0.1215 C.ar    
  10 O10           -1.2049     2.2980     0.1408 O.2     
  11 O11            1.4753    -1.3198     0.0557 O.2     
  12 C12           -1.3226    -0.5908     0.0936 C.3     
  13 C13           -1.3146    -1.4508    -1.1718 C.3     
  14 S14            0.0560    -2.3575     1.9281 S.3     
  15 N15           -0.8034    -3.0337     3.2289 N.2     
  16 C16           -2.0271    -2.5721     3.1224 C.2     
  17 N17           -2.2831    -1.7585     2.1141 N.2     
  18 C18           -1.2922    -1.4831     1.3076 C.2     
  19 S19           -4.7531    -2.4056     4.0672 S.3     
  20 C20           -5.0825    -3.3225     5.4718 C.2     
  21 N21           -4.0139    -3.9428     5.8654 N.2     
  22 C22           -2.9216    -3.7668     5.1523 C.2     
  23 C23           -3.0771    -2.9481     4.0919 C.2     
  24 O24           -6.2878    -3.3910     6.0863 O.3     
  25 C25           -6.4212    -4.2442     7.1365 C.ar    
  26 C26           -5.7143    -4.0176     8.3084 C.ar    
  27 C27           -5.8503    -4.8840     9.3754 C.ar    
  28 C28           -6.6933    -5.9810     9.2750 C.ar    
  29 C29           -7.3999    -6.2078     8.1031 C.ar    
  30 C30           -7.2687    -5.3381     7.0382 C.ar    
  31 O31           -6.8268    -6.8342    10.3253 O.3     
  32 C32           -5.9693    -6.6199    11.4482 C.3     
  33 C33           -6.6860    -5.7433    12.4772 C.3     
  34 C34           -5.6148    -7.9659    12.0834 C.3     
  35 H35            4.0519     0.3124     0.0632 H       
  36 H36            5.0186     2.5794     0.0972 H       
  37 H37            3.5575     4.5513     0.1464 H       
  38 H38            1.1071     4.2870     0.1624 H       
  39 H39           -2.2262     0.0185     0.1132 H       
  40 H40           -0.4111    -2.0601    -1.1913 H       
  41 H41           -2.1905    -2.0995    -1.1757 H       
  42 H42           -1.3367    -0.8053    -2.0499 H       
  43 H43           -1.9807    -4.2376     5.3961 H       
  44 H44           -5.0573    -3.1639     8.3864 H       
  45 H45           -5.2999    -4.7077    10.2877 H       
  46 H46           -8.0557    -7.0623     8.0248 H       
  47 H47           -7.8225    -5.5121     6.1275 H       
  48 H48           -5.0572    -6.1220    11.1191 H       
  49 H49           -6.0320    -5.5799    13.3338 H       
  50 H50           -6.9386    -4.7844    12.0247 H       
  51 H51           -7.5981    -6.2412    12.8063 H       
  52 H52           -5.1042    -8.5904    11.3503 H       
  53 H53           -4.9608    -7.8025    12.9399 H       
  54 H54           -6.5269    -8.4638    12.4125 H       
@<TRIPOS>BOND
   1    1    2 am
   2    1    9 1
   3    1   10 2
   4    2    3 am
   5    2   12 1
   6    3    4 1
   7    3   11 2
   8    4    5 ar
   9    4    9 ar
  10    5    6 ar
  11    5   35 1
  12    6    7 ar
  13    6   36 1
  14    7    8 ar
  15    7   37 1
  16    8    9 ar
  17    8   38 1
  18   12   13 1
  19   12   18 1
  20   12   39 1
  21   13   40 1
  22   13   41 1
  23   13   42 1
  24   14   15 1
  25   14   18 1
  26   15   16 2
  27   16   17 1
  28   16   23 1
  29   17   18 2
  30   19   20 1
  31   19   23 1
  32   20   21 2
  33   20   24 1
  34   21   22 1
  35   22   23 2
  36   22   43 1
  37   24   25 1
  38   25   26 ar
  39   25   30 ar
  40   26   27 ar
  41   26   44 1
  42   27   28 ar
  43   27   45 1
  44   28   29 ar
  45   28   31 1
  46   29   30 ar
  47   29   46 1
  48   30   47 1
  49   31   32 1
  50   32   33 1
  51   32   34 1
  52   32   48 1
  53   33   49 1
  54   33   50 1
  55   33   51 1
  56   34   52 1
  57   34   53 1
  58   34   54 1

#	End of record

