#	Name: ASD00843368
#	Creating user name:	WinNT
#	Creation time:	15. 06. 2019 18:46

#	Modifying user name:	WinNT
#	Modification time:	15. 06. 2019 18:46

#	Program:	/corina/corina34_cracker 3.40 0067  02.08.2006

@<TRIPOS>MOLECULE
ASD00843368
  85   90    0    0    0
SMALL
NO_CHARGES


@<TRIPOS>ATOM
   1 N1             0.9700     1.1323    -0.0417 N.ar    
   2 C2             1.1559    -0.1278    -0.3974 C.ar    
   3 C3             1.0458    -1.1505     0.5364 C.ar    
   4 C4             0.7384    -0.8343     1.8480 C.ar    
   5 C5             0.5509     0.5004     2.1808 C.ar    
   6 C6             0.6758     1.4648     1.2010 C.ar    
   7 C7             1.2580    -2.5850     0.1263 C.3     
   8 C8             0.9418    -3.5178     1.2759 C.2     
   9 C9             0.3985    -2.9256    -1.0927 C.3     
  10 C10           -1.0430    -2.5995    -0.7980 C.2     
  11 N11           -2.0026    -2.9229    -1.6874 N.am    
  12 O12           -1.3396    -2.0459     0.2396 O.2     
  13 C13           -3.3958    -2.5109    -1.4685 C.3     
  14 C14           -4.2948    -3.7485    -1.5517 C.3     
  15 C15           -4.0522    -4.4616    -2.8839 C.3     
  16 C16           -2.5936    -4.9182    -2.9618 C.3     
  17 C17           -1.6743    -3.6890    -2.8973 C.3     
  18 N18           -4.9367    -5.6304    -2.9815 N.3     
  19 C19           -4.8172    -6.2729    -4.2977 C.3     
  20 C20           -5.6919    -7.5284    -4.3310 C.3     
  21 N21           -7.0867    -7.1579    -4.0537 N.3     
  22 C22           -7.2063    -6.5154    -2.7375 C.3     
  23 C23           -6.3315    -5.2600    -2.7042 C.3     
  24 H24           -7.4543    -6.5631    -4.7812 H       
  25 O25           -0.1301    -3.6403     1.8299 O.2     
  26 N26            2.0707    -4.1852     1.5669 N.am    
  27 C27            2.7193    -2.8429    -0.1632 C.ar    
  28 C28            3.1314    -3.8155     0.7446 C.ar    
  29 C29            3.5924    -2.3180    -1.0820 C.ar    
  30 C30            4.9193    -2.7618    -1.1138 C.ar    
  31 C31            5.3407    -3.7393    -0.2043 C.ar    
  32 C32            4.4533    -4.2598     0.7133 C.ar    
  33 F33            6.6195    -4.1743    -0.2268 F       
  34 C34            1.7955    -6.8802     2.0521 C.ar    
  35 C35            2.7973    -7.6583     1.5020 C.ar    
  36 C36            0.4873    -7.3278     2.0462 C.ar    
  37 C37            0.1780    -8.5541     1.4903 C.ar    
  38 C38            1.1814    -9.3367     0.9377 C.ar    
  39 C39            2.4932    -8.8851     0.9445 C.ar    
  40 O40            0.8799   -10.5436     0.3907 O.3     
  41 H41            3.8184    -7.3065     1.5078 H       
  42 C42            1.9634   -11.2953    -0.1599 C.3     
  43 S43            2.1876    -5.3189     2.7684 S.o2    
  44 O44            3.5599    -5.3777     3.1324 O.2     
  45 O45            1.1495    -5.0303     3.6948 O.2     
  46 C46            5.8385    -2.2207    -2.0692 C.1     
  47 N47            6.5678    -1.7915    -2.8271 N.1     
  48 O48            1.4565    -0.4247    -1.6867 O.3     
  49 C49            1.5156     0.6669    -2.6070 C.3     
  50 C50            1.9589     0.1542    -3.9787 C.3     
  51 F51            3.1842    -0.5095    -3.8547 F       
  52 F52            0.9977    -0.7309    -4.4786 F       
  53 H53            0.6460    -1.6082     2.5956 H       
  54 H54            0.3095     0.7812     3.1954 H       
  55 H55            0.5313     2.5046     1.4548 H       
  56 H56            0.7353    -2.3418    -1.9493 H       
  57 H57            0.4919    -3.9880    -1.3178 H       
  58 H58           -3.4915    -2.0553    -0.4829 H       
  59 H59           -3.6895    -1.7937    -2.2349 H       
  60 H60           -4.0606    -4.4243    -0.7293 H       
  61 H61           -5.3395    -3.4442    -1.4869 H       
  62 H62           -4.2630    -3.7774    -3.7057 H       
  63 H63           -2.3753    -5.5830    -2.1261 H       
  64 H64           -2.4274    -5.4465    -3.9006 H       
  65 H65           -1.8289    -3.0703    -3.7813 H       
  66 H66           -0.6343    -4.0125    -2.8526 H       
  67 H67           -5.1462    -5.5798    -5.0719 H       
  68 H68           -3.7777    -6.5492    -4.4745 H       
  69 H69           -5.6273    -7.9906    -5.3160 H       
  70 H70           -5.3456    -8.2330    -3.5749 H       
  71 H71           -8.2458    -6.2392    -2.5607 H       
  72 H72           -6.8772    -7.2085    -1.9633 H       
  73 H73           -6.3961    -4.7977    -1.7192 H       
  74 H74           -6.6778    -4.5553    -3.4603 H       
  75 H75            3.2566    -1.5647    -1.7791 H       
  76 H76            4.7837    -5.0137     1.4124 H       
  77 H77           -0.2935    -6.7183     2.4768 H       
  78 H78           -0.8439    -8.9034     1.4863 H       
  79 H79            3.2761    -9.4927     0.5152 H       
  80 H80            1.5859   -12.2353    -0.5624 H       
  81 H81            2.4350   -10.7217    -0.9578 H       
  82 H82            2.6956   -11.5022     0.6206 H       
  83 H83            0.5300     1.1247    -2.6914 H       
  84 H84            2.2304     1.4070    -2.2473 H       
  85 H85            2.0689     0.9955    -4.6629 H       
@<TRIPOS>BOND
   1    1    2 ar
   2    1    6 ar
   3    2    3 ar
   4    2   48 1
   5    3    4 ar
   6    3    7 1
   7    4    5 ar
   8    4   53 1
   9    5    6 ar
  10    5   54 1
  11    6   55 1
  12    7    8 1
  13    7    9 1
  14    7   27 1
  15    8   25 2
  16    8   26 am
  17    9   10 1
  18    9   56 1
  19    9   57 1
  20   10   11 am
  21   10   12 2
  22   11   13 1
  23   11   17 1
  24   13   14 1
  25   13   58 1
  26   13   59 1
  27   14   15 1
  28   14   60 1
  29   14   61 1
  30   15   16 1
  31   15   18 1
  32   15   62 1
  33   16   17 1
  34   16   63 1
  35   16   64 1
  36   17   65 1
  37   17   66 1
  38   18   19 1
  39   18   23 1
  40   19   20 1
  41   19   67 1
  42   19   68 1
  43   20   21 1
  44   20   69 1
  45   20   70 1
  46   21   22 1
  47   21   24 1
  48   22   23 1
  49   22   71 1
  50   22   72 1
  51   23   73 1
  52   23   74 1
  53   26   43 am
  54   26   28 1
  55   27   28 ar
  56   27   29 ar
  57   28   32 ar
  58   29   30 ar
  59   29   75 1
  60   30   31 ar
  61   30   46 1
  62   31   32 ar
  63   31   33 1
  64   32   76 1
  65   34   35 ar
  66   34   36 ar
  67   34   43 1
  68   35   41 1
  69   35   39 ar
  70   36   37 ar
  71   36   77 1
  72   37   38 ar
  73   37   78 1
  74   38   39 ar
  75   38   40 1
  76   39   79 1
  77   40   42 1
  78   42   80 1
  79   42   81 1
  80   42   82 1
  81   43   44 2
  82   43   45 2
  83   46   47 3
  84   48   49 1
  85   49   50 1
  86   49   83 1
  87   49   84 1
  88   50   51 1
  89   50   52 1
  90   50   85 1

#	End of record

