#	Name: ASD01190092
#	Creating user name:	WinNT
#	Creation time:	15. 06. 2019 19:07

#	Modifying user name:	WinNT
#	Modification time:	15. 06. 2019 19:07

#	Program:	/corina/corina34_cracker 3.40 0067  02.08.2006

@<TRIPOS>MOLECULE
ASD01190092
  57   61    0    0    0
SMALL
NO_CHARGES


@<TRIPOS>ATOM
   1 C1            -3.2397     1.1656     1.2739 C.3     
   2 C2            -2.9473    -0.0315     0.3671 C.3     
   3 C3            -1.7687    -0.8252     0.9345 C.3     
   4 O4            -4.2622     1.9712     0.6843 O.3     
   5 O5            -4.1007    -0.8726     0.3018 O.3     
   6 N6            -1.4120    -1.9007     0.0059 N.pl3   
   7 C7            -1.8611    -3.1910     0.0874 C.2     
   8 C8            -1.3451    -3.9191    -0.9153 C.2     
   9 C9            -0.4963    -3.0220    -1.7034 C.ar    
  10 C10            0.2912    -3.1854    -2.8448 C.ar    
  11 C11            0.9825    -2.1209    -3.3502 C.ar    
  12 C12            0.9084    -0.8765    -2.7374 C.ar    
  13 C13            0.1370    -0.6934    -1.6099 C.ar    
  14 C14           -0.5797    -1.7627    -1.0822 C.ar    
  15 C15           -1.5916    -5.3821    -1.1797 C.3     
  16 C16           -2.5117    -5.9482    -0.0962 C.3     
  17 O17           -2.2099    -5.5375    -2.4586 O.3     
  18 N18            3.2359    -8.2590    -1.3478 N.pl3   
  19 N19            3.0474    -8.9258    -2.5629 N.2     
  20 C20            1.8981    -8.5963    -3.0808 C.2     
  21 C21            1.2550    -7.6495    -2.1753 C.ar    
  22 C22            0.0368    -6.9612    -2.1926 C.ar    
  23 C23           -0.2798    -6.1236    -1.1625 C.ar    
  24 C24            0.5962    -5.9478    -0.0982 C.ar    
  25 C25            1.7914    -6.6086    -0.0592 C.ar    
  26 C26            2.1413    -7.4698    -1.0956 C.ar    
  27 C27            4.3584    -8.3815    -0.5186 C.ar    
  28 C28            5.0120    -9.6018    -0.4091 C.ar    
  29 C29            6.1184    -9.7205     0.4088 C.ar    
  30 C30            6.5760    -8.6236     1.1196 C.ar    
  31 C31            5.9256    -7.4058     1.0119 C.ar    
  32 C32            4.8223    -7.2814     0.1906 C.ar    
  33 F33            7.6582    -8.7419     1.9196 F       
  34 F34           -3.7295    -5.2598    -0.1122 F       
  35 F35           -2.7405    -7.3064    -0.3417 F       
  36 F36           -1.9064    -5.7961     1.1558 F       
  37 Br37           1.8757     0.5805    -3.4567 Br      
  38 H38           -3.5741     0.8101     2.2485 H       
  39 H39           -2.3338     1.7596     1.3950 H       
  40 H40           -2.6987     0.3227    -0.6334 H       
  41 H41           -0.9142    -0.1617     1.0675 H       
  42 H42           -2.0490    -1.2539     1.8966 H       
  43 H43           -4.4992     2.7500     1.2062 H       
  44 H44           -4.3797    -1.2247     1.1581 H       
  45 H45           -2.5312    -3.5675     0.8460 H       
  46 H46            0.3539    -4.1500    -3.3263 H       
  47 H47            1.5917    -2.2480    -4.2328 H       
  48 H48            0.0856     0.2778    -1.1404 H       
  49 H49           -1.6814    -5.1996    -3.1946 H       
  50 H50            1.4936    -8.9589    -4.0143 H       
  51 H51           -0.6491    -7.0918    -3.0165 H       
  52 H52            0.3291    -5.2804     0.7078 H       
  53 H53            2.4634    -6.4628     0.7735 H       
  54 H54            4.6553   -10.4576    -0.9630 H       
  55 H55            6.6268   -10.6695     0.4945 H       
  56 H56            6.2839    -6.5516     1.5673 H       
  57 H57            4.3182    -6.3303     0.1030 H       
@<TRIPOS>BOND
   1    1    2 1
   2    1    4 1
   3    1   38 1
   4    1   39 1
   5    2    3 1
   6    2    5 1
   7    2   40 1
   8    3    6 1
   9    3   41 1
  10    3   42 1
  11    4   43 1
  12    5   44 1
  13    6    7 1
  14    6   14 1
  15    7    8 2
  16    7   45 1
  17    8    9 1
  18    8   15 1
  19    9   10 ar
  20    9   14 ar
  21   10   11 ar
  22   10   46 1
  23   11   12 ar
  24   11   47 1
  25   12   13 ar
  26   12   37 1
  27   13   14 ar
  28   13   48 1
  29   15   16 1
  30   15   17 1
  31   15   23 1
  32   16   34 1
  33   16   35 1
  34   16   36 1
  35   17   49 1
  36   18   19 1
  37   18   26 1
  38   18   27 1
  39   19   20 2
  40   20   21 1
  41   20   50 1
  42   21   22 ar
  43   21   26 ar
  44   22   23 ar
  45   22   51 1
  46   23   24 ar
  47   24   25 ar
  48   24   52 1
  49   25   26 ar
  50   25   53 1
  51   27   28 ar
  52   27   32 ar
  53   28   29 ar
  54   28   54 1
  55   29   30 ar
  56   29   55 1
  57   30   31 ar
  58   30   33 1
  59   31   32 ar
  60   31   56 1
  61   32   57 1

#	End of record

