#	Name: ASD02770053
#	Creating user name:	WinNT
#	Creation time:	15. 06. 2019 20:26

#	Modifying user name:	WinNT
#	Modification time:	15. 06. 2019 20:26

#	Program:	/corina/corina34_cracker 3.40 0067  02.08.2006

@<TRIPOS>MOLECULE
ASD02770053
  43   45    0    0    0
SMALL
NO_CHARGES


@<TRIPOS>ATOM
   1 C1            -0.0184     1.5028     0.0103 C.2     
   2 C2             0.0021    -0.0041     0.0020 C.3     
   3 O3             1.0236     2.1234     0.0037 O.2     
   4 N4            -1.1946     2.1607     0.0195 N.am    
   5 O5             1.3556    -0.4620    -0.0134 O.3     
   6 C6             1.5521    -1.8079    -0.0225 C.ar    
   7 C7             1.6410    -2.4891    -1.2270 C.ar    
   8 C8             1.8408    -3.8579    -1.2339 C.ar    
   9 C9             1.9517    -4.5492    -0.0417 C.ar    
  10 C10            1.8635    -3.8757     1.1622 C.ar    
  11 C11            1.6700    -2.5034     1.1765 C.ar    
  12 C12            2.1688    -6.0404    -0.0547 C.3     
  13 N13            3.6059    -6.3245    -0.0707 N.pl3   
  14 C14            6.9837   -11.1470    -0.1387 C.2     
  15 N15            7.1284    -9.8086    -0.1305 N.am    
  16 C16            5.8620    -9.2292    -0.1132 C.ar    
  17 C17            4.9384   -10.2769    -0.1114 C.ar    
  18 N18            5.6748   -11.4621    -0.1276 N.am    
  19 C19            5.4183    -7.9163    -0.0998 C.ar    
  20 C20            4.0571    -7.6488    -0.0847 C.ar    
  21 C21            3.1405    -8.6939    -0.0831 C.ar    
  22 C22            3.5797   -10.0031    -0.0956 C.ar    
  23 O23            7.8976   -11.9504    -0.1586 O.2     
  24 O24            1.5895    -1.8389     2.3603 O.3     
  25 C25            1.7194    -2.6175     3.5515 C.3     
  26 Cl26           1.5011    -1.6245    -2.7258 Cl      
  27 H27           -0.4983    -0.3791     0.8948 H       
  28 H28           -0.5153    -0.3696    -0.8850 H       
  29 H29           -2.0280     1.6644     0.0207 H       
  30 H30           -1.2077     3.1306     0.0248 H       
  31 H31            1.9100    -4.3877    -2.1725 H       
  32 H32            1.9497    -4.4184     2.0920 H       
  33 H33            1.7213    -6.4805     0.8364 H       
  34 H34            1.7042    -6.4674    -0.9434 H       
  35 H35            4.2447    -5.5945    -0.0714 H       
  36 H36            7.9717    -9.3292    -0.1353 H       
  37 H37            5.3066   -12.3595    -0.1306 H       
  38 H38            6.1300    -7.1040    -0.1008 H       
  39 H39            2.0817    -8.4814    -0.0710 H       
  40 H40            2.8651   -10.8129    -0.0945 H       
  41 H41            2.6910    -3.1117     3.5584 H       
  42 H42            1.6366    -1.9667     4.4219 H       
  43 H43            0.9298    -3.3683     3.5827 H       
@<TRIPOS>BOND
   1    1    2 1
   2    1    3 2
   3    1    4 am
   4    2    5 1
   5    2   27 1
   6    2   28 1
   7    4   29 1
   8    4   30 1
   9    5    6 1
  10    6    7 ar
  11    6   11 ar
  12    7    8 ar
  13    7   26 1
  14    8    9 ar
  15    8   31 1
  16    9   10 ar
  17    9   12 1
  18   10   11 ar
  19   10   32 1
  20   11   24 1
  21   12   13 1
  22   12   33 1
  23   12   34 1
  24   13   20 1
  25   13   35 1
  26   14   15 am
  27   14   18 am
  28   14   23 2
  29   15   16 1
  30   15   36 1
  31   16   17 ar
  32   16   19 ar
  33   17   18 1
  34   17   22 ar
  35   18   37 1
  36   19   20 ar
  37   19   38 1
  38   20   21 ar
  39   21   22 ar
  40   21   39 1
  41   22   40 1
  42   24   25 1
  43   25   41 1
  44   25   42 1
  45   25   43 1

#	End of record

