#	Name: ASD01810539
#	Creating user name:	WinNT
#	Creation time:	15. 06. 2019 19:24

#	Modifying user name:	WinNT
#	Modification time:	15. 06. 2019 19:24

#	Program:	/corina/corina34_cracker 3.40 0067  02.08.2006

@<TRIPOS>MOLECULE
ASD01810539
  62   65    0    0    0
SMALL
NO_CHARGES


@<TRIPOS>ATOM
   1 C1            -2.2658     1.3998    -0.4193 C.2     
   2 C2            -2.2274    -0.0556    -0.6559 C.ar    
   3 C3            -3.4102    -0.8112    -0.6381 C.ar    
   4 C4            -3.3276    -2.1585    -0.8632 C.ar    
   5 C5            -2.0819    -2.7370    -1.1016 C.ar    
   6 N6            -0.9794    -2.0003    -1.1130 N.ar    
   7 C7            -1.0151    -0.7003    -0.9065 C.ar    
   8 O8            -3.3273     1.9534    -0.2069 O.2     
   9 N9            -1.1236     2.1151    -0.4331 N.am    
  10 N10           -1.9945    -4.0999    -1.3292 N.pl3   
  11 C11           -3.2060    -4.9235    -1.3184 C.3     
  12 C12           -3.8623    -4.8833    -2.6999 C.3     
  13 C13           -2.8381    -6.3673    -0.9704 C.3     
  14 C14           -1.1690     3.5030    -0.3129 C.ar    
  15 C15            0.0130     4.2348    -0.2126 C.ar    
  16 C16           -0.0896     5.6243    -0.0945 C.ar    
  17 C17           -1.3715     6.1849    -0.0852 C.ar    
  18 N18           -2.4286     5.4046    -0.1859 N.ar    
  19 N19           -2.3347     4.1303    -0.2992 N.ar    
  20 C20            1.1186     6.4744     0.0174 C.2     
  21 O21            1.2077     7.4931    -0.6390 O.2     
  22 N22            2.1189     6.1179     0.8474 N.am    
  23 C23            2.0673     4.8443     1.5781 C.3     
  24 C24            2.2649     5.1241     3.0712 C.3     
  25 C25            3.5619     5.9115     3.2713 C.3     
  26 C26            3.4659     7.2510     2.5373 C.3     
  27 C27            3.2846     6.9926     1.0338 C.3     
  28 C28            3.7771     6.1592     4.7421 C.ar    
  29 C29            4.9143     5.6737     5.3630 C.ar    
  30 C30            5.1176     5.8968     6.7091 C.ar    
  31 C31            4.1728     6.6148     7.4449 C.ar    
  32 C32            3.0277     7.1022     6.8118 C.ar    
  33 C33            2.8394     6.8759     5.4641 C.ar    
  34 C34            4.3770     6.8498     8.8427 C.1     
  35 N35            4.5390     7.0362     9.9515 N.1     
  36 H36           -4.3638    -0.3400    -0.4507 H       
  37 H37           -4.2191    -2.7680    -0.8558 H       
  38 H38           -0.0987    -0.1292    -0.9269 H       
  39 H39           -0.2700     1.6641    -0.5266 H       
  40 H40           -1.1311    -4.5094    -1.4959 H       
  41 H41           -3.9019    -4.5364    -0.5742 H       
  42 H42           -3.1664    -5.2705    -3.4442 H       
  43 H43           -4.7637    -5.4961    -2.6919 H       
  44 H44           -4.1244    -3.8548    -2.9479 H       
  45 H45           -2.3705    -6.3959     0.0138 H       
  46 H46           -3.7395    -6.9801    -0.9624 H       
  47 H47           -2.1422    -6.7544    -1.7147 H       
  48 H48            0.9755     3.7452    -0.2252 H       
  49 H49           -1.4942     7.2541     0.0047 H       
  50 H50            1.0980     4.3714     1.4201 H       
  51 H51            2.8597     4.1861     1.2217 H       
  52 H52            1.4239     5.7071     3.4465 H       
  53 H53            2.3248     4.1805     3.6134 H       
  54 H54            4.3995     5.3386     2.8733 H       
  55 H55            2.6136     7.8139     2.9176 H       
  56 H56            4.3807     7.8210     2.6995 H       
  57 H57            4.1742     6.5061     0.6339 H       
  58 H58            3.1187     7.9376     0.5167 H       
  59 H59            5.6443     5.1185     4.7927 H       
  60 H60            6.0053     5.5167     7.1927 H       
  61 H61            2.2929     7.6583     7.3751 H       
  62 H62            1.9561     7.2559     4.9722 H       
@<TRIPOS>BOND
   1    1    2 1
   2    1    8 2
   3    1    9 am
   4    2    3 ar
   5    2    7 ar
   6    3    4 ar
   7    3   36 1
   8    4    5 ar
   9    4   37 1
  10    5    6 ar
  11    5   10 1
  12    6    7 ar
  13    7   38 1
  14    9   14 1
  15    9   39 1
  16   10   11 1
  17   10   40 1
  18   11   12 1
  19   11   13 1
  20   11   41 1
  21   12   42 1
  22   12   43 1
  23   12   44 1
  24   13   45 1
  25   13   46 1
  26   13   47 1
  27   14   15 ar
  28   14   19 ar
  29   15   16 ar
  30   15   48 1
  31   16   17 ar
  32   16   20 1
  33   17   18 ar
  34   17   49 1
  35   18   19 ar
  36   20   21 2
  37   20   22 am
  38   22   23 1
  39   22   27 1
  40   23   24 1
  41   23   50 1
  42   23   51 1
  43   24   25 1
  44   24   52 1
  45   24   53 1
  46   25   26 1
  47   25   28 1
  48   25   54 1
  49   26   27 1
  50   26   55 1
  51   26   56 1
  52   27   57 1
  53   27   58 1
  54   28   29 ar
  55   28   33 ar
  56   29   30 ar
  57   29   59 1
  58   30   31 ar
  59   30   60 1
  60   31   32 ar
  61   31   34 1
  62   32   33 ar
  63   32   61 1
  64   33   62 1
  65   34   35 3

#	End of record

