#	Name: ASD04590055
#	Creating user name:	WinNT
#	Creation time:	15. 06. 2019 20:50

#	Modifying user name:	WinNT
#	Modification time:	15. 06. 2019 20:50

#	Program:	/corina/corina34_cracker 3.40 0067  02.08.2006

@<TRIPOS>MOLECULE
ASD04590055
  41   43    0    0    0
SMALL
NO_CHARGES


@<TRIPOS>ATOM
   1 N1            -0.0768     1.2682    -0.0494 N.pl3   
   2 N2            -0.0362    -0.0145     0.0019 N.2     
   3 C3             1.1929    -0.4418    -0.2149 C.2     
   4 C4             2.0015     0.7056    -0.4235 C.2     
   5 C5             1.1590     1.7668    -0.3103 C.2     
   6 C6             1.6418    -1.8464    -0.2361 C.2     
   7 O7             2.8102    -2.1082    -0.4485 O.2     
   8 N8             0.7571    -2.8400    -0.0200 N.am    
   9 C9             1.1617    -4.1748    -0.1363 C.ar    
  10 C10            2.4397    -4.5507     0.2561 C.ar    
  11 C11            2.8369    -5.8684     0.1404 C.ar    
  12 C12            1.9618    -6.8144    -0.3663 C.ar    
  13 C13            0.6872    -6.4416    -0.7586 C.ar    
  14 C14            0.2838    -5.1262    -0.6389 C.ar    
  15 F15            2.3523    -8.1029    -0.4786 F       
  16 N16            3.3784     0.7380    -0.6897 N.am    
  17 C17            4.0032     1.9193    -0.8645 C.2     
  18 C18            5.4543     1.9535    -1.1450 C.ar    
  19 C19            6.1038     3.1752    -1.3264 C.ar    
  20 C20            7.4630     3.1993    -1.5888 C.ar    
  21 C21            8.1761     2.0107    -1.6713 C.ar    
  22 C22            7.5340     0.7997    -1.4918 C.ar    
  23 C23            6.1807     0.7643    -1.2236 C.ar    
  24 O24            3.3736     2.9567    -0.7916 O.2     
  25 O25            8.0995     4.3870    -1.7662 O.3     
  26 C26            9.5024     4.3376    -2.0336 C.3     
  27 H27           -0.8759     1.8035     0.0759 H       
  28 H28            1.4228     2.8094    -0.4095 H       
  29 H29           -0.1599    -2.6300     0.2161 H       
  30 H30            3.1226    -3.8131     0.6510 H       
  31 H31            3.8308    -6.1611     0.4452 H       
  32 H32            0.0064    -7.1810    -1.1539 H       
  33 H33           -0.7120    -4.8367    -0.9405 H       
  34 H34            3.8807    -0.0897    -0.7479 H       
  35 H35            5.5479     4.0989    -1.2627 H       
  36 H36            9.2361     2.0324    -1.8768 H       
  37 H37            8.0940    -0.1214    -1.5575 H       
  38 H38            5.6830    -0.1833    -1.0794 H       
  39 H39           10.0138     3.8525    -1.2022 H       
  40 H40            9.6782     3.7716    -2.9484 H       
  41 H41            9.8852     5.3511    -2.1541 H       
@<TRIPOS>BOND
   1    1    2 1
   2    1    5 1
   3    1   27 1
   4    2    3 2
   5    3    4 1
   6    3    6 1
   7    4    5 2
   8    4   16 1
   9    5   28 1
  10    6    7 2
  11    6    8 am
  12    8    9 1
  13    8   29 1
  14    9   10 ar
  15    9   14 ar
  16   10   11 ar
  17   10   30 1
  18   11   12 ar
  19   11   31 1
  20   12   13 ar
  21   12   15 1
  22   13   14 ar
  23   13   32 1
  24   14   33 1
  25   16   17 am
  26   16   34 1
  27   17   18 1
  28   17   24 2
  29   18   19 ar
  30   18   23 ar
  31   19   20 ar
  32   19   35 1
  33   20   21 ar
  34   20   25 1
  35   21   22 ar
  36   21   36 1
  37   22   23 ar
  38   22   37 1
  39   23   38 1
  40   25   26 1
  41   26   39 1
  42   26   40 1
  43   26   41 1

#	End of record

