#	Name: ASD03540106
#	Creating user name:	WinNT
#	Creation time:	15. 06. 2019 20:42

#	Modifying user name:	WinNT
#	Modification time:	15. 06. 2019 20:42

#	Program:	/corina/corina34_cracker 3.40 0067  02.08.2006

@<TRIPOS>MOLECULE
ASD03540106
  53   56    0    0    0
SMALL
NO_CHARGES


@<TRIPOS>ATOM
   1 C1            -0.0179     1.4722     0.0101 C.2     
   2 C2             0.0021    -0.0041     0.0020 C.ar    
   3 C3             1.2180    -0.6841    -0.0132 C.ar    
   4 C4             1.2312    -2.0766    -0.0204 C.ar    
   5 C5             2.5146    -2.8050    -0.0361 C.2     
   6 C6             0.0191    -2.7850    -0.0122 C.ar    
   7 C7            -1.1873    -2.0967     0.0031 C.ar    
   8 C8            -1.2000    -0.7201     0.0155 C.ar    
   9 O9             1.0266     2.0944     0.0035 O.2     
  10 N10           -1.1942     2.1301     0.0193 N.am    
  11 O11            2.5235    -4.0208    -0.0423 O.2     
  12 N12            3.6767    -2.1225    -0.0435 N.am    
  13 O13            0.0261    -4.1398    -0.0195 O.3     
  14 C14           -1.2437    -4.7952    -0.0104 C.3     
  15 C15            4.9508    -2.8455    -0.0590 C.3     
  16 C16            6.0889    -1.8578    -0.0647 C.ar    
  17 C17            6.6219    -1.4109     1.1300 C.ar    
  18 C18            7.6658    -0.5050     1.1254 C.ar    
  19 C19            8.1772    -0.0454    -0.0751 C.ar    
  20 C20            7.6434    -0.4930    -1.2704 C.ar    
  21 C21            6.6032    -1.4032    -1.2647 C.ar    
  22 Cl22           9.4879     1.0929    -0.0816 Cl      
  23 C23           -1.2140     3.5950     0.0273 C.3     
  24 O24           -6.5319     5.3937     0.3232 O.3     
  25 C25           -6.5045     5.8144     1.7000 C.3     
  26 O26           -5.4520     5.0208     2.2794 O.3     
  27 C27           -4.6011     4.7368     1.2505 C.ar    
  28 C28           -5.2652     4.9661     0.0476 C.ar    
  29 C29           -3.2893     4.2925     1.2394 C.ar    
  30 C30           -2.6415     4.0779     0.0367 C.ar    
  31 C31           -3.3002     4.3059    -1.1567 C.ar    
  32 C32           -4.6101     4.7491    -1.1533 C.ar    
  33 H33            2.1469    -0.1333    -0.0199 H       
  34 H34           -2.1187    -2.6434     0.0090 H       
  35 H35           -2.1413    -0.1909     0.0315 H       
  36 H36           -2.0275     1.6338     0.0205 H       
  37 H37            3.6696    -1.1525    -0.0385 H       
  38 H38           -1.7933    -4.5100     0.8866 H       
  39 H39           -1.8110    -4.5004    -0.8932 H       
  40 H40           -1.0953    -5.8750    -0.0177 H       
  41 H41            5.0214    -3.4762     0.8271 H       
  42 H42            5.0048    -3.4672    -0.9527 H       
  43 H43            6.2223    -1.7695     2.0671 H       
  44 H44            8.0819    -0.1558     2.0588 H       
  45 H45            8.0422    -0.1345    -2.2079 H       
  46 H46            6.1893    -1.7560    -2.1977 H       
  47 H47           -0.7010     3.9604     0.9169 H       
  48 H48           -0.7094     3.9701    -0.8630 H       
  49 H49           -6.2674     6.8759     1.7714 H       
  50 H50           -7.4569     5.6002     2.1849 H       
  51 H51           -2.7719     4.1143     2.1705 H       
  52 H52           -2.7909     4.1371    -2.0940 H       
  53 H53           -5.1226     4.9257    -2.0874 H       
@<TRIPOS>BOND
   1    1    2 1
   2    1    9 2
   3    1   10 am
   4    2    3 ar
   5    2    8 ar
   6    3    4 ar
   7    3   33 1
   8    4    5 1
   9    4    6 ar
  10    5   11 2
  11    5   12 am
  12    6    7 ar
  13    6   13 1
  14    7    8 ar
  15    7   34 1
  16    8   35 1
  17   10   23 1
  18   10   36 1
  19   12   15 1
  20   12   37 1
  21   13   14 1
  22   14   38 1
  23   14   39 1
  24   14   40 1
  25   15   16 1
  26   15   41 1
  27   15   42 1
  28   16   17 ar
  29   16   21 ar
  30   17   18 ar
  31   17   43 1
  32   18   19 ar
  33   18   44 1
  34   19   20 ar
  35   19   22 1
  36   20   21 ar
  37   20   45 1
  38   21   46 1
  39   23   30 1
  40   23   47 1
  41   23   48 1
  42   24   25 1
  43   24   28 1
  44   25   26 1
  45   25   49 1
  46   25   50 1
  47   26   27 1
  48   27   28 ar
  49   27   29 ar
  50   28   32 ar
  51   29   30 ar
  52   29   51 1
  53   30   31 ar
  54   31   32 ar
  55   31   52 1
  56   32   53 1

#	End of record

