#	Name: ASD03092403
#	Creating user name:	WinNT
#	Creation time:	15. 06. 2019 20:32

#	Modifying user name:	WinNT
#	Modification time:	15. 06. 2019 20:32

#	Program:	/corina/corina34_cracker 3.40 0067  02.08.2006

@<TRIPOS>MOLECULE
ASD03092403
  60   64    0    0    0
SMALL
NO_CHARGES


@<TRIPOS>ATOM
   1 C1            -0.0278     1.2766    -0.7462 C.3     
   2 C2            -0.0452    -0.2394    -0.9516 C.3     
   3 C3             1.2855     0.5155    -0.9384 C.3     
   4 C4            -0.5056     2.1387    -1.8862 C.2     
   5 O5            -0.8847     1.6251    -2.9174 O.2     
   6 N6            -0.5116     3.4805    -1.7597 N.am    
   7 C7            -0.9761     4.3186    -2.8679 C.3     
   8 S8            -1.3865     8.1066    -1.6508 S.3     
   9 C9             0.1782     7.7146    -2.2165 C.2     
  10 N10            0.2241     6.4712    -2.5901 N.2     
  11 C11           -0.8827     5.7701    -2.4735 C.2     
  12 C12           -1.9276     6.4608    -1.9714 C.2     
  13 N13            1.2431     8.5955    -2.2694 N.3     
  14 C14            0.8539     9.9231    -1.7721 C.3     
  15 C15            2.0418    10.8799    -1.9038 C.3     
  16 O16            3.1611    10.3426    -1.1941 O.3     
  17 C17            3.5675     9.0505    -1.6530 C.3     
  18 C18            2.3951     8.0752    -1.5187 C.3     
  19 C19            4.7434     8.5551    -0.8088 C.3     
  20 C20            1.6688    12.2416    -1.3143 C.3     
  21 C21           -5.6653     6.0983    -1.9234 C.ar    
  22 C22           -4.4176     6.6305    -2.1675 C.ar    
  23 C23           -3.2842     5.9310    -1.7324 C.ar    
  24 C24           -3.4749     4.7138    -1.0644 C.ar    
  25 C25           -4.7591     4.2565    -0.8634 C.ar    
  26 N26           -5.7998     4.9479    -1.2901 N.ar    
  27 C27           -4.9787     2.9490    -0.1470 C.3     
  28 C28           -6.8932     6.8431    -2.3802 C.3     
  29 C29           -7.4462     7.9286    -1.4546 C.3     
  30 C30           -6.7282     8.3190    -2.7480 C.3     
  31 H31           -0.2505     1.6518     0.2526 H       
  32 H32           -0.2794    -0.8617    -0.0878 H       
  33 H33           -0.4023    -0.6133    -1.9112 H       
  34 H34            1.8039     0.6383    -1.8893 H       
  35 H35            1.9267     0.3900    -0.0660 H       
  36 H36           -0.2084     3.8913    -0.9350 H       
  37 H37           -0.3537     4.1396    -3.7446 H       
  38 H38           -2.0118     4.0715    -3.1011 H       
  39 H39            0.0160    10.3002    -2.3586 H       
  40 H40            0.5613     9.8480    -0.7248 H       
  41 H41            2.3001    10.9967    -2.9563 H       
  42 H42            3.8702     9.1141    -2.6982 H       
  43 H43            2.1272     7.9706    -0.4674 H       
  44 H44            2.6823     7.1034    -1.9202 H       
  45 H45            4.4389     8.4901     0.2358 H       
  46 H46            5.0527     7.5703    -1.1590 H       
  47 H47            5.5765     9.2519    -0.9017 H       
  48 H48            1.4125    12.1238    -0.2614 H       
  49 H49            2.5149    12.9223    -1.4083 H       
  50 H50            0.8132    12.6488    -1.8531 H       
  51 H51           -4.3151     7.5720    -2.6865 H       
  52 H52           -2.6283     4.1427    -0.7129 H       
  53 H53           -5.0684     3.1320     0.9238 H       
  54 H54           -5.8931     2.4828    -0.5138 H       
  55 H55           -4.1333     2.2865    -0.3327 H       
  56 H56           -7.6112     6.2580    -2.9550 H       
  57 H57           -8.5280     8.0580    -1.4208 H       
  58 H58           -6.9219     8.1041    -0.5153 H       
  59 H59           -5.7315     8.7513    -2.6596 H       
  60 H60           -7.3376     8.7052    -3.5651 H       
@<TRIPOS>BOND
   1    1    2 1
   2    1    3 1
   3    1    4 1
   4    1   31 1
   5    2    3 1
   6    2   32 1
   7    2   33 1
   8    3   34 1
   9    3   35 1
  10    4    5 2
  11    4    6 am
  12    6    7 1
  13    6   36 1
  14    7   11 1
  15    7   37 1
  16    7   38 1
  17    8    9 1
  18    8   12 1
  19    9   10 2
  20    9   13 1
  21   10   11 1
  22   11   12 2
  23   12   23 1
  24   13   14 1
  25   13   18 1
  26   14   15 1
  27   14   39 1
  28   14   40 1
  29   15   16 1
  30   15   20 1
  31   15   41 1
  32   16   17 1
  33   17   18 1
  34   17   19 1
  35   17   42 1
  36   18   43 1
  37   18   44 1
  38   19   45 1
  39   19   46 1
  40   19   47 1
  41   20   48 1
  42   20   49 1
  43   20   50 1
  44   21   22 ar
  45   21   26 ar
  46   21   28 1
  47   22   23 ar
  48   22   51 1
  49   23   24 ar
  50   24   25 ar
  51   24   52 1
  52   25   26 ar
  53   25   27 1
  54   27   53 1
  55   27   54 1
  56   27   55 1
  57   28   29 1
  58   28   30 1
  59   28   56 1
  60   29   30 1
  61   29   57 1
  62   29   58 1
  63   30   59 1
  64   30   60 1

#	End of record

