#	Name: ASD01350060
#	Creating user name:	WinNT
#	Creation time:	15. 06. 2019 19:16

#	Modifying user name:	WinNT
#	Modification time:	15. 06. 2019 19:16

#	Program:	/corina/corina34_cracker 3.40 0067  02.08.2006

@<TRIPOS>MOLECULE
ASD01350060
  23   24    0    0    0
SMALL
NO_CHARGES


@<TRIPOS>ATOM
   1 Cl1            0.0021    -0.0041     0.0020 Cl      
   2 C2            -0.0215     1.7317     0.0116 C.ar    
   3 C3             1.1693     2.4379     0.0040 C.ar    
   4 C4             1.1559     3.8177     0.0111 C.ar    
   5 C5            -0.0590     4.5004     0.0259 C.ar    
   6 C6            -1.2550     3.7849     0.0334 C.ar    
   7 C7            -1.2310     2.4052     0.0210 C.ar    
   8 C8            -0.0791     5.9835     0.0340 C.ar    
   9 C9             0.6939     6.6882     0.9534 C.ar    
  10 C10            0.6715     8.0705     0.9568 C.ar    
  11 F11            1.4215     8.7541     1.8487 F       
  12 C12           -0.1174     8.7565     0.0480 C.ar    
  13 C13           -0.8880     8.0648    -0.8676 C.ar    
  14 C14           -0.8699     6.6799    -0.8850 C.ar    
  15 O15           -1.6274     5.9997    -1.7851 O.3     
  16 H16            2.1103     1.9079    -0.0071 H       
  17 H17            2.0854     4.3677     0.0055 H       
  18 H18           -2.1991     4.3094     0.0452 H       
  19 H19           -2.1572     1.8498     0.0268 H       
  20 H20            1.3098     6.1556     1.6630 H       
  21 H21           -0.1306     9.8364     0.0551 H       
  22 H22           -1.5014     8.6049    -1.5736 H       
  23 H23           -1.1769     5.8189    -2.6214 H       
@<TRIPOS>BOND
   1    1    2 1
   2    2    3 ar
   3    2    7 ar
   4    3    4 ar
   5    3   16 1
   6    4    5 ar
   7    4   17 1
   8    5    6 ar
   9    5    8 1
  10    6    7 ar
  11    6   18 1
  12    7   19 1
  13    8    9 ar
  14    8   14 ar
  15    9   10 ar
  16    9   20 1
  17   10   11 1
  18   10   12 ar
  19   12   13 ar
  20   12   21 1
  21   13   14 ar
  22   13   22 1
  23   14   15 1
  24   15   23 1

#	End of record

