#	Name: ASD01814235
#	Creating user name:	WinNT
#	Creation time:	15. 06. 2019 19:31

#	Modifying user name:	WinNT
#	Modification time:	15. 06. 2019 19:31

#	Program:	/corina/corina34_cracker 3.40 0067  02.08.2006

@<TRIPOS>MOLECULE
ASD01814235
  41   44    0    0    0
SMALL
NO_CHARGES


@<TRIPOS>ATOM
   1 C1             6.9290     1.5389    -0.7900 C.ar    
   2 C2             6.9709     0.1534    -0.7997 C.ar    
   3 C3             5.8368    -0.5883    -0.5466 C.ar    
   4 C4             4.6310     0.0523    -0.2772 C.ar    
   5 C5             4.5880     1.4573    -0.2672 C.ar    
   6 C6             5.7444     2.1974    -0.5253 C.ar    
   7 N7             3.4910    -0.6796    -0.0232 N.pl3   
   8 C8             2.3073    -0.1110     0.2403 C.2     
   9 C9             2.1416     1.2586     0.2776 C.2     
  10 C10            3.3050     2.1231     0.0195 C.2     
  11 C11            0.8258     1.8443     0.5702 C.2     
  12 O12            0.6766     3.1836     0.6038 O.3     
  13 O13           -0.1280     1.1209     0.7818 O.2     
  14 O14            3.2109     3.3379     0.0412 O.2     
  15 C15            3.5775    -2.1419    -0.0430 C.3     
  16 C16            3.4305    -2.6422    -1.4814 C.3     
  17 C17            3.6512    -4.1679    -1.5569 C.3     
  18 C18            2.6932    -4.6544    -2.6231 C.ar    
  19 C19            1.7291    -3.6926    -2.8591 C.ar    
  20 C20            1.9732    -2.4939    -1.9676 C.3     
  21 C21            2.6670    -5.8448    -3.3305 C.ar    
  22 C22            1.6813    -6.0731    -4.2705 C.ar    
  23 C23            0.7169    -5.1110    -4.5066 C.ar    
  24 C24            0.7412    -3.9236    -3.8019 C.ar    
  25 F25            5.7041     3.5477    -0.5160 F       
  26 H26            7.8273     2.1056    -0.9859 H       
  27 H27            7.9029    -0.3509    -1.0083 H       
  28 H28            5.8840    -1.6672    -0.5577 H       
  29 H29            1.4541    -0.7454     0.4296 H       
  30 H30           -0.2076     3.5221     0.8004 H       
  31 H31            4.5438    -2.4541     0.3533 H       
  32 H32            2.7804    -2.5614     0.5709 H       
  33 H33            4.1187    -2.1179    -2.1444 H       
  34 H34            4.6796    -4.3876    -1.8437 H       
  35 H35            3.4177    -4.6317    -0.5985 H       
  36 H36            1.2883    -2.5074    -1.1197 H       
  37 H37            1.8558    -1.5705    -2.5349 H       
  38 H38            3.4200    -6.5969    -3.1467 H       
  39 H39            1.6641    -7.0022    -4.8210 H       
  40 H40           -0.0545    -5.2878    -5.2414 H       
  41 H41           -0.0125    -3.1725    -3.9868 H       
@<TRIPOS>BOND
   1    1    2 ar
   2    1    6 ar
   3    1   26 1
   4    2    3 ar
   5    2   27 1
   6    3    4 ar
   7    3   28 1
   8    4    5 ar
   9    4    7 1
  10    5    6 ar
  11    5   10 1
  12    6   25 1
  13    7    8 1
  14    7   15 1
  15    8    9 2
  16    8   29 1
  17    9   10 1
  18    9   11 1
  19   10   14 2
  20   11   12 1
  21   11   13 2
  22   12   30 1
  23   15   16 1
  24   15   31 1
  25   15   32 1
  26   16   17 1
  27   16   20 1
  28   16   33 1
  29   17   18 1
  30   17   34 1
  31   17   35 1
  32   18   19 ar
  33   18   21 ar
  34   19   20 1
  35   19   24 ar
  36   20   36 1
  37   20   37 1
  38   21   22 ar
  39   21   38 1
  40   22   23 ar
  41   22   39 1
  42   23   24 ar
  43   23   40 1
  44   24   41 1

#	End of record

