#	Name: ASD01410371
#	Creating user name:	WinNT
#	Creation time:	15. 06. 2019 19:17

#	Modifying user name:	WinNT
#	Modification time:	15. 06. 2019 19:17

#	Program:	/corina/corina34_cracker 3.40 0067  02.08.2006

@<TRIPOS>MOLECULE
ASD01410371
  58   61    0    0    0
SMALL
NO_CHARGES


@<TRIPOS>ATOM
   1 N1            -0.0166     1.3704     0.0096 N.pl3   
   2 C2             0.0021    -0.0041     0.0020 C.2     
   3 C3             1.2887    -0.4360    -0.0126 C.2     
   4 C4             2.1282     0.7037    -0.0145 C.ar    
   5 C5             3.5207     0.8713    -0.0272 C.ar    
   6 C6             4.0562     2.1223    -0.0256 C.ar    
   7 C7             3.2236     3.2517    -0.0111 C.ar    
   8 C8             1.8376     3.1029     0.0017 C.ar    
   9 C9             1.2836     1.8325    -0.0004 C.ar    
  10 C10            3.8170     4.6011    -0.0090 C.2     
  11 O11            3.0983     5.5808     0.0035 O.2     
  12 O12            5.1566     4.7481    -0.0210 O.3     
  13 C13           -1.1925    -0.8755     0.0095 C.ar    
  14 C14           -2.2531    -0.6033     0.8749 C.ar    
  15 C15           -3.3657    -1.4207     0.8764 C.ar    
  16 C16           -3.4300    -2.5085     0.0216 C.ar    
  17 C17           -2.3817    -2.7828    -0.8380 C.ar    
  18 C18           -1.2665    -1.9702    -0.8528 C.ar    
  19 C19            1.7426    -1.8730    -0.0246 C.3     
  20 C20            2.5720    -2.1353    -1.2833 C.3     
  21 C21            3.0329    -3.5942    -1.2955 C.3     
  22 C22            3.8861    -3.8699    -0.0558 C.3     
  23 C23            3.0567    -3.6076     1.2028 C.3     
  24 C24            2.5959    -2.1487     1.2151 C.3     
  25 C25           -1.2191     2.2071     0.0200 C.3     
  26 C26           -1.6244     2.4863     1.4444 C.2     
  27 N27           -2.7109     3.2417     1.7001 N.am    
  28 C28           -3.1050     3.5131     3.0848 C.3     
  29 C29           -3.4978     3.7915     0.5934 C.3     
  30 O30           -0.9730     2.0312     2.3606 O.2     
  31 Cl31          -4.6861    -1.0848     1.9522 Cl      
  32 H32            4.1682     0.0070    -0.0380 H       
  33 H33            5.1290     2.2467    -0.0351 H       
  34 H34            1.1985     3.9734     0.0135 H       
  35 H35            5.4990     5.6524    -0.0190 H       
  36 H36           -2.2034     0.2446     1.5420 H       
  37 H37           -4.3022    -3.1454     0.0265 H       
  38 H38           -2.4378    -3.6327    -1.5020 H       
  39 H39           -0.4507    -2.1835    -1.5276 H       
  40 H40            0.8722    -2.5290    -0.0198 H       
  41 H41            1.9642    -1.9388    -2.1664 H       
  42 H42            3.4425    -1.4792    -1.2880 H       
  43 H43            2.1624    -4.2502    -1.2907 H       
  44 H44            3.6238    -3.7810    -2.1922 H       
  45 H45            4.2144    -4.9092    -0.0645 H       
  46 H46            4.7566    -3.2138    -0.0606 H       
  47 H47            2.1862    -4.2636     1.2076 H       
  48 H48            3.6646    -3.8040     2.0860 H       
  49 H49            3.4663    -1.4926     1.2103 H       
  50 H50            2.0050    -1.9618     2.1118 H       
  51 H51           -1.0115     3.1480    -0.4897 H       
  52 H52           -2.0282     1.6869    -0.4927 H       
  53 H53           -2.2959     4.0334     3.5975 H       
  54 H54           -3.9997     4.1357     3.0925 H       
  55 H55           -3.3125     2.5723     3.5945 H       
  56 H56           -4.2799     3.0843     0.3172 H       
  57 H57           -3.9519     4.7328     0.9029 H       
  58 H58           -2.8470     3.9664    -0.2634 H       
@<TRIPOS>BOND
   1    1    2 1
   2    1    9 1
   3    1   25 1
   4    2    3 2
   5    2   13 1
   6    3    4 1
   7    3   19 1
   8    4    5 ar
   9    4    9 ar
  10    5    6 ar
  11    5   32 1
  12    6    7 ar
  13    6   33 1
  14    7    8 ar
  15    7   10 1
  16    8    9 ar
  17    8   34 1
  18   10   11 2
  19   10   12 1
  20   12   35 1
  21   13   14 ar
  22   13   18 ar
  23   14   15 ar
  24   14   36 1
  25   15   16 ar
  26   15   31 1
  27   16   17 ar
  28   16   37 1
  29   17   18 ar
  30   17   38 1
  31   18   39 1
  32   19   20 1
  33   19   24 1
  34   19   40 1
  35   20   21 1
  36   20   41 1
  37   20   42 1
  38   21   22 1
  39   21   43 1
  40   21   44 1
  41   22   23 1
  42   22   45 1
  43   22   46 1
  44   23   24 1
  45   23   47 1
  46   23   48 1
  47   24   49 1
  48   24   50 1
  49   25   26 1
  50   25   51 1
  51   25   52 1
  52   26   27 am
  53   26   30 2
  54   27   28 1
  55   27   29 1
  56   28   53 1
  57   28   54 1
  58   28   55 1
  59   29   56 1
  60   29   57 1
  61   29   58 1

#	End of record

