#	Name: ASD00170403
#	Creating user name:	WinNT
#	Creation time:	15. 06. 2019 18:32

#	Modifying user name:	WinNT
#	Modification time:	15. 06. 2019 18:32

#	Program:	/corina/corina34_cracker 3.40 0067  02.08.2006

@<TRIPOS>MOLECULE
ASD00170403
  70   74    0    0    0
SMALL
NO_CHARGES


@<TRIPOS>ATOM
   1 C1            -0.4413     0.7741    -0.3106 C.2     
   2 C2            -0.6384    -0.5109     0.1462 C.2     
   3 C3            -1.9973    -0.9650    -0.0292 C.2     
   4 C4            -2.7865    -0.0458    -0.5991 C.2     
   5 S5            -1.8873     1.4223    -0.9374 S.3     
   6 C6            -2.4776    -2.3319     0.3852 C.3     
   7 C7            -4.2208    -0.2393    -0.8974 C.ar    
   8 C8            -5.1512     0.7340    -0.5286 C.ar    
   9 C9            -6.4887     0.5470    -0.8101 C.ar    
  10 C10           -6.9088    -0.6021    -1.4563 C.ar    
  11 C11           -5.9920    -1.5708    -1.8245 C.ar    
  12 C12           -4.6508    -1.3937    -1.5543 C.ar    
  13 N13            0.7610     1.4461    -0.2618 N.pl3   
  14 C14            0.4176    -1.3282     0.7455 C.2     
  15 C15            1.2149    -2.2421    -0.1002 C.ar    
  16 O16            0.6394    -1.2555     1.9406 O.2     
  17 C17            2.2932    -2.9407     0.4461 C.ar    
  18 C18            3.0332    -3.7916    -0.3476 C.ar    
  19 C19            2.7088    -3.9534    -1.6845 C.ar    
  20 C20            1.6402    -3.2630    -2.2321 C.ar    
  21 C21            0.8890    -2.4141    -1.4468 C.ar    
  22 Cl22           3.6458    -5.0255    -2.6777 Cl      
  23 N23           -2.2591    -2.5115     1.8268 N.3     
  24 C24           -3.3058    -1.8366     2.6059 C.3     
  25 C25           -3.1090    -0.3218     2.5197 C.3     
  26 C26           -4.1991     0.3811     3.3312 C.3     
  27 C27           -5.5727     0.0123     2.7670 C.3     
  28 C28           -5.7694    -1.5025     2.8532 C.3     
  29 C29           -4.6793    -2.2054     2.0418 C.3     
  30 C30           -2.1809    -3.9367     2.1739 C.3     
  31 C31           -0.9617    -4.5614     1.4924 C.3     
  32 C32           -0.8802    -6.0458     1.8539 C.3     
  33 C33           -0.7485    -6.1948     3.3709 C.3     
  34 C34           -1.9677    -5.5701     4.0524 C.3     
  35 C35           -2.0492    -4.0857     3.6909 C.3     
  36 H36           -3.5409    -2.4259     0.1644 H       
  37 H37           -1.9238    -3.0935    -0.1638 H       
  38 H38           -4.8246     1.6312    -0.0239 H       
  39 H39           -7.2095     1.2990    -0.5250 H       
  40 H40           -7.9571    -0.7437    -1.6739 H       
  41 H41           -6.3265    -2.4655    -2.3283 H       
  42 H42           -3.9361    -2.1504    -1.8425 H       
  43 H43            1.5245     1.0428     0.1801 H       
  44 H44            0.8436     2.3224    -0.6694 H       
  45 H45            2.5475    -2.8148     1.4882 H       
  46 H46            3.8675    -4.3326     0.0739 H       
  47 H47            1.3922    -3.3930    -3.2752 H       
  48 H48            0.0558    -1.8765    -1.8748 H       
  49 H49           -3.2440    -2.1523     3.6473 H       
  50 H50           -2.1305    -0.0590     2.9216 H       
  51 H51           -3.1708    -0.0061     1.4782 H       
  52 H52           -4.1374     0.0654     4.3726 H       
  53 H53           -4.0589     1.4603     3.2697 H       
  54 H54           -6.3493     0.5131     3.3451 H       
  55 H55           -5.6344     0.3280     1.7256 H       
  56 H56           -5.7077    -1.8182     3.8947 H       
  57 H57           -6.7480    -1.7652     2.4513 H       
  58 H58           -4.7411    -1.8897     1.0003 H       
  59 H59           -4.8195    -3.2846     2.1032 H       
  60 H60           -3.0851    -4.4431     1.8362 H       
  61 H61           -1.0555    -4.4553     0.4116 H       
  62 H62           -0.0575    -4.0550     1.8301 H       
  63 H63           -1.7844    -6.5522     1.5162 H       
  64 H64           -0.0117    -6.4909     1.3684 H       
  65 H65           -0.6905    -7.2523     3.6285 H       
  66 H66            0.1557    -5.6884     3.7086 H       
  67 H67           -2.8719    -6.0765     3.7148 H       
  68 H68           -1.8739    -5.6762     5.1332 H       
  69 H69           -1.1450    -3.5793     4.0286 H       
  70 H70           -2.9177    -3.6407     4.1764 H       
@<TRIPOS>BOND
   1    1    2 2
   2    1   13 1
   3    1    5 1
   4    2    3 1
   5    2   14 1
   6    3    4 2
   7    3    6 1
   8    4    5 1
   9    4    7 1
  10    6   23 1
  11    6   36 1
  12    6   37 1
  13    7    8 ar
  14    7   12 ar
  15    8    9 ar
  16    8   38 1
  17    9   10 ar
  18    9   39 1
  19   10   11 ar
  20   10   40 1
  21   11   12 ar
  22   11   41 1
  23   12   42 1
  24   13   43 1
  25   13   44 1
  26   14   15 1
  27   14   16 2
  28   15   17 ar
  29   15   21 ar
  30   17   18 ar
  31   17   45 1
  32   18   19 ar
  33   18   46 1
  34   19   20 ar
  35   19   22 1
  36   20   21 ar
  37   20   47 1
  38   21   48 1
  39   23   24 1
  40   23   30 1
  41   24   25 1
  42   24   29 1
  43   24   49 1
  44   25   26 1
  45   25   50 1
  46   25   51 1
  47   26   27 1
  48   26   52 1
  49   26   53 1
  50   27   28 1
  51   27   54 1
  52   27   55 1
  53   28   29 1
  54   28   56 1
  55   28   57 1
  56   29   58 1
  57   29   59 1
  58   30   31 1
  59   30   35 1
  60   30   60 1
  61   31   32 1
  62   31   61 1
  63   31   62 1
  64   32   33 1
  65   32   63 1
  66   32   64 1
  67   33   34 1
  68   33   65 1
  69   33   66 1
  70   34   35 1
  71   34   67 1
  72   34   68 1
  73   35   69 1
  74   35   70 1

#	End of record

