#	Name: ASD01140126
#	Creating user name:	WinNT
#	Creation time:	15. 06. 2019 19:00

#	Modifying user name:	WinNT
#	Modification time:	15. 06. 2019 19:00

#	Program:	/corina/corina34_cracker 3.40 0067  02.08.2006

@<TRIPOS>MOLECULE
ASD01140126
  57   60    0    0    0
SMALL
NO_CHARGES


@<TRIPOS>ATOM
   1 C1            -0.6829     0.8894     0.3374 C.3     
   2 C2             0.3835    -0.0720    -0.1206 C.2     
   3 O3             1.3887    -0.2150     0.5332 O.2     
   4 C4             0.1954    -0.8550    -1.3944 C.3     
   5 C5             1.5697    -1.2606    -1.9830 C.3     
   6 C6             1.5584    -2.8096    -2.0951 C.3     
   7 C7             0.0631    -3.1371    -2.1690 C.3     
   8 C8            -0.3282    -4.5424    -1.7524 C.3     
   9 C9             0.2819    -5.5698    -2.7070 C.3     
  10 C10           -0.1648    -6.9744    -2.2961 C.3     
  11 C11           -1.6906    -7.0653    -2.3594 C.3     
  12 C12           -2.1359    -8.4689    -1.9445 C.3     
  13 C13           -3.6617    -8.5601    -2.0107 C.3     
  14 O14           -4.0972    -8.2966    -3.3460 O.3     
  15 C15           -4.2756    -7.5292    -1.0612 C.3     
  16 C16           -3.8305    -6.1254    -1.4760 C.3     
  17 C17           -2.3045    -6.0333    -1.4109 C.3     
  18 C18           -1.8369    -6.3125     0.0189 C.3     
  19 C19           -1.8603    -4.6311    -1.8293 C.3     
  20 C20           -2.5273    -3.5858    -0.9418 C.3     
  21 C21           -2.0299    -2.1687    -1.2736 C.3     
  22 C22           -0.5231    -2.1689    -1.1059 C.3     
  23 C23           -0.1597    -2.6599     0.2969 C.3     
  24 H24           -0.4874     1.8759    -0.0829 H       
  25 H25           -1.6581     0.5377     0.0006 H       
  26 H26           -0.6744     0.9500     1.4257 H       
  27 H27           -0.3671    -0.2665    -2.1192 H       
  28 H28            1.7005    -0.8151    -2.9692 H       
  29 H29            2.3712    -0.9394    -1.3177 H       
  30 H30            2.0696    -3.1345    -3.0013 H       
  31 H31            2.0095    -3.2635    -1.2127 H       
  32 H32           -0.3259    -2.9140    -3.1625 H       
  33 H33            0.0159    -4.7344    -0.7362 H       
  34 H34           -0.0529    -5.3649    -3.7238 H       
  35 H35            1.3691    -5.5066    -2.6625 H       
  36 H36            0.2711    -7.7072    -2.9751 H       
  37 H37            0.1692    -7.1785    -1.2788 H       
  38 H38           -2.0242    -6.8647    -3.3775 H       
  39 H39           -1.6982    -9.2036    -2.6204 H       
  40 H40           -1.8038    -8.6692    -0.9258 H       
  41 H41           -3.9791    -9.5603    -1.7157 H       
  42 H42           -5.0563    -8.3375    -3.4622 H       
  43 H43           -5.3626    -7.5943    -1.1077 H       
  44 H44           -3.9428    -7.7298    -0.0428 H       
  45 H45           -4.1634    -5.9249    -2.4943 H       
  46 H46           -4.2679    -5.3910    -0.7997 H       
  47 H47           -0.7499    -6.2468     0.0650 H       
  48 H48           -2.2744    -5.5773     0.6943 H       
  49 H49           -2.1534    -7.3124     0.3159 H       
  50 H50           -2.1724    -4.4551    -2.8587 H       
  51 H51           -3.6064    -3.6286    -1.0896 H       
  52 H52           -2.3023    -3.8076     0.1014 H       
  53 H53           -2.2884    -1.9162    -2.3020 H       
  54 H54           -2.4790    -1.4484    -0.5899 H       
  55 H55           -0.5555    -1.9661     1.0386 H       
  56 H56           -0.5893    -3.6485     0.4585 H       
  57 H57            0.9247    -2.7148     0.3931 H       
@<TRIPOS>BOND
   1    1    2 1
   2    1   24 1
   3    1   25 1
   4    1   26 1
   5    2    3 2
   6    2    4 1
   7    4    5 1
   8    4   22 1
   9    4   27 1
  10    5    6 1
  11    5   28 1
  12    5   29 1
  13    6    7 1
  14    6   30 1
  15    6   31 1
  16    7    8 1
  17    7   22 1
  18    7   32 1
  19    8    9 1
  20    8   19 1
  21    8   33 1
  22    9   10 1
  23    9   34 1
  24    9   35 1
  25   10   11 1
  26   10   36 1
  27   10   37 1
  28   11   12 1
  29   11   17 1
  30   11   38 1
  31   12   13 1
  32   12   39 1
  33   12   40 1
  34   13   14 1
  35   13   15 1
  36   13   41 1
  37   14   42 1
  38   15   16 1
  39   15   43 1
  40   15   44 1
  41   16   17 1
  42   16   45 1
  43   16   46 1
  44   17   18 1
  45   17   19 1
  46   18   47 1
  47   18   48 1
  48   18   49 1
  49   19   20 1
  50   19   50 1
  51   20   21 1
  52   20   51 1
  53   20   52 1
  54   21   22 1
  55   21   53 1
  56   21   54 1
  57   22   23 1
  58   23   55 1
  59   23   56 1
  60   23   57 1

#	End of record

