#	Name: ASD01900692
#	Creating user name:	WinNT
#	Creation time:	15. 06. 2019 19:52

#	Modifying user name:	WinNT
#	Modification time:	15. 06. 2019 19:52

#	Program:	/corina/corina34_cracker 3.40 0067  02.08.2006

@<TRIPOS>MOLECULE
ASD01900692
  31   34    0    0    0
SMALL
NO_CHARGES


@<TRIPOS>ATOM
   1 C1            -0.0184     1.4027     0.1333 C.ar    
   2 C2            -0.0083     0.0179     0.1223 C.ar    
   3 C3             1.1829    -0.6776     0.0636 C.ar    
   4 C4             2.3875     0.0114     0.0147 C.ar    
   5 C5             2.3724     1.4126     0.0300 C.ar    
   6 O6             3.5584    -0.6574    -0.0542 O.3     
   7 C7             4.7346    -0.0531     0.1933 C.2     
   8 C8             4.8737     1.2968     0.2233 C.2     
   9 C9             3.6749     2.1255    -0.0095 C.2     
  10 C10            5.9182    -0.8893     0.4411 C.2     
  11 N11            7.1155    -0.2998     0.6931 N.2     
  12 C12            8.1424    -0.9015     1.2062 C.2     
  13 C13            8.0183    -2.3163     1.6578 C.3     
  14 C14            6.9144    -2.9853     0.8609 C.2     
  15 C15            5.7970    -2.2783     0.4202 C.2     
  16 C16            1.1701     2.1048     0.0870 C.ar    
  17 N17            9.1584    -3.1928     1.4537 N.2     
  18 C18            8.6865    -4.2560     0.8572 C.2     
  19 N19            7.3812    -4.1670     0.5686 N.2     
  20 N20            3.7547     3.4131    -0.2383 N.2     
  21 O21            2.5957     4.1408    -0.6018 O.3     
  22 H22           -0.9575     1.9346     0.1736 H       
  23 H23           -0.9419    -0.5236     0.1603 H       
  24 H24            1.1777    -1.7575     0.0562 H       
  25 H25            5.8347     1.7517     0.4130 H       
  26 H26            9.0831    -0.3804     1.3056 H       
  27 H27            7.7538    -2.3326     2.7151 H       
  28 H28            4.9000    -2.7728     0.0778 H       
  29 H29            1.1643     3.1848     0.0948 H       
  30 H30            9.2891    -5.1203     0.6203 H       
  31 H31            2.7534     5.0833    -0.7499 H       
@<TRIPOS>BOND
   1    1    2 ar
   2    1   16 ar
   3    1   22 1
   4    2    3 ar
   5    2   23 1
   6    3    4 ar
   7    3   24 1
   8    4    5 ar
   9    4    6 1
  10    5   16 ar
  11    5    9 1
  12    6    7 1
  13    7    8 2
  14    7   10 1
  15    8    9 1
  16    8   25 1
  17    9   20 2
  18   10   11 1
  19   10   15 2
  20   11   12 2
  21   12   13 1
  22   12   26 1
  23   13   14 1
  24   13   17 1
  25   13   27 1
  26   14   15 1
  27   14   19 2
  28   15   28 1
  29   16   29 1
  30   17   18 2
  31   18   19 1
  32   18   30 1
  33   20   21 1
  34   21   31 1

#	End of record

