#	Name: ASD01915274
#	Creating user name:	WinNT
#	Creation time:	15. 06. 2019 20:05

#	Modifying user name:	WinNT
#	Modification time:	15. 06. 2019 20:05

#	Program:	/corina/corina34_cracker 3.40 0067  02.08.2006

@<TRIPOS>MOLECULE
ASD01915274
  48   50    0    0    0
SMALL
NO_CHARGES


@<TRIPOS>ATOM
   1 C1            -0.7652     1.7175    -0.5939 C.3     
   2 O2            -0.5138     0.3256    -0.3900 O.3     
   3 C3            -1.6947    -0.4779    -0.3457 C.3     
   4 C4            -1.4590    -1.6683     0.5479 C.2     
   5 N5            -2.4774    -2.4992     0.8461 N.am    
   6 C6            -2.2470    -3.7282     1.6206 C.3     
   7 C7            -3.2422    -3.7634     2.7852 C.3     
   8 N8            -4.6065    -3.6041     2.2643 N.3     
   9 C9            -4.7809    -2.2964     1.6183 C.3     
  10 C10           -3.8496    -2.1979     0.4110 C.3     
  11 C11           -5.5540    -3.7941     3.2747 C.ar    
  12 C12           -6.3325    -2.7292     3.7074 C.ar    
  13 C13           -7.2681    -2.9196     4.7061 C.ar    
  14 C14           -7.4297    -4.1700     5.2756 C.ar    
  15 C15           -6.6550    -5.2340     4.8471 C.ar    
  16 C16           -5.7224    -5.0511     3.8441 C.ar    
  17 Cl17          -8.6060    -4.4049     6.5305 Cl      
  18 Cl18          -4.7509    -6.3857     3.3068 Cl      
  19 O19           -0.3528    -1.8787     0.9986 O.2     
  20 C20            0.5429     2.4651    -0.6236 C.ar    
  21 C21            1.2084     2.6464    -1.8216 C.ar    
  22 C22            2.4083     3.3322    -1.8488 C.ar    
  23 C23            2.9426     3.8371    -0.6781 C.ar    
  24 C24            2.2767     3.6566     0.5198 C.ar    
  25 C25            1.0746     2.9746     0.5464 C.ar    
  26 C26           -2.0372    -0.9594    -1.7570 C.3     
  27 H27           -1.2855     1.8578    -1.5414 H       
  28 H28           -1.3828     2.0981     0.2196 H       
  29 H29           -2.5218     0.1132     0.0473 H       
  30 H30           -2.4002    -4.5978     0.9815 H       
  31 H31           -1.2285    -3.7306     2.0090 H       
  32 H32           -3.1605    -4.7181     3.3048 H       
  33 H33           -3.0203    -2.9517     3.4780 H       
  34 H34           -5.8150    -2.1871     1.2915 H       
  35 H35           -4.5375    -1.5051     2.3273 H       
  36 H36           -3.8914    -1.1902    -0.0024 H       
  37 H37           -4.1542    -2.9203    -0.3462 H       
  38 H38           -6.2066    -1.7525     3.2639 H       
  39 H39           -7.8737    -2.0912     5.0428 H       
  40 H40           -6.7828    -6.2089     5.2939 H       
  41 H41            0.7910     2.2520    -2.7362 H       
  42 H42            2.9286     3.4732    -2.7847 H       
  43 H43            3.8804     4.3723    -0.6993 H       
  44 H44            2.6942     4.0508     1.4345 H       
  45 H45            0.5543     2.8336     1.4822 H       
  46 H46           -2.8844    -1.6437    -1.7118 H       
  47 H47           -2.2945    -0.1033    -2.3805 H       
  48 H48           -1.1766    -1.4744    -2.1840 H       
@<TRIPOS>BOND
   1    1    2 1
   2    1   20 1
   3    1   27 1
   4    1   28 1
   5    2    3 1
   6    3    4 1
   7    3   26 1
   8    3   29 1
   9    4    5 am
  10    4   19 2
  11    5    6 1
  12    5   10 1
  13    6    7 1
  14    6   30 1
  15    6   31 1
  16    7    8 1
  17    7   32 1
  18    7   33 1
  19    8    9 1
  20    8   11 1
  21    9   10 1
  22    9   34 1
  23    9   35 1
  24   10   36 1
  25   10   37 1
  26   11   12 ar
  27   11   16 ar
  28   12   13 ar
  29   12   38 1
  30   13   14 ar
  31   13   39 1
  32   14   15 ar
  33   14   17 1
  34   15   16 ar
  35   15   40 1
  36   16   18 1
  37   20   21 ar
  38   20   25 ar
  39   21   22 ar
  40   21   41 1
  41   22   23 ar
  42   22   42 1
  43   23   24 ar
  44   23   43 1
  45   24   25 ar
  46   24   44 1
  47   25   45 1
  48   26   46 1
  49   26   47 1
  50   26   48 1

#	End of record

