#	Name: ASD01180247
#	Creating user name:	WinNT
#	Creation time:	15. 06. 2019 19:07

#	Modifying user name:	WinNT
#	Modification time:	15. 06. 2019 19:07

#	Program:	/corina/corina34_cracker 3.40 0067  02.08.2006

@<TRIPOS>MOLECULE
ASD01180247
  62   64    0    0    0
SMALL
NO_CHARGES


@<TRIPOS>ATOM
   1 C1            -2.1310    -2.2790    -6.7211 C.2     
   2 C2            -1.6325    -2.9737    -5.4802 C.3     
   3 C3            -0.5528    -3.9881    -5.8625 C.3     
   4 O4            -1.6701    -2.5658    -7.8005 O.2     
   5 O5            -3.0911    -1.3455    -6.6278 O.3     
   6 C6             0.8918    -5.6048    -4.7505 C.2     
   7 C7             1.3799    -6.2850    -3.5356 C.ar    
   8 C8             2.3793    -7.2666    -3.6223 C.ar    
   9 C9             2.8018    -7.8716    -2.4697 C.ar    
  10 C10            2.2324    -7.4987    -1.2532 C.ar    
  11 N11            1.2891    -6.5684    -1.1991 N.ar    
  12 C12            0.8586    -5.9574    -2.2832 C.ar    
  13 O13            1.3557    -5.8934    -5.8368 O.2     
  14 N14           -0.0682    -4.6635    -4.6562 N.am    
  15 N15            2.6574    -8.1087    -0.0851 N.pl3   
  16 C16            3.7829    -9.0460    -0.1158 C.3     
  17 C17            4.4266    -9.1156     1.2705 C.3     
  18 C18            5.0452    -7.7591     1.6143 C.3     
  19 C19            5.7904    -7.8615     2.9466 C.3     
  20 C20            2.3566   -12.9333    -1.2209 C.ar    
  21 C21            3.5807   -12.4619    -1.7300 C.ar    
  22 C22            4.0362   -11.1949    -1.3643 C.ar    
  23 C23            3.2871   -10.4137    -0.5087 C.ar    
  24 C24            2.0825   -10.8789    -0.0084 C.ar    
  25 C25            1.6157   -12.1301    -0.3592 C.ar    
  26 C26            1.8564   -14.2743    -1.6048 C.ar    
  27 C27            1.4349   -15.1714    -0.6240 C.ar    
  28 C28            0.9702   -16.4188    -0.9876 C.ar    
  29 C29            0.9223   -16.7802    -2.3221 C.ar    
  30 C30            1.3395   -15.8946    -3.2996 C.ar    
  31 C31            1.8000   -14.6420    -2.9487 C.ar    
  32 C32            0.4142   -18.1441    -2.7125 C.3     
  33 F33           -0.9681   -18.0851    -2.9197 F       
  34 F34            1.0451   -18.5572    -3.8909 F       
  35 F35            0.6938   -19.0564    -1.6894 F       
  36 C36            4.3541   -13.2775    -2.6174 C.1     
  37 N37            4.9676   -13.9245    -3.3213 N.1     
  38 H38           -1.2127    -2.2371    -4.7952 H       
  39 H39           -2.4609    -3.4902    -4.9953 H       
  40 H40           -0.9726    -4.7248    -6.5475 H       
  41 H41            0.2756    -3.4717    -6.3474 H       
  42 H42           -3.3784    -0.9275    -7.4511 H       
  43 H43            2.8049    -7.5386    -4.5769 H       
  44 H44            3.5690    -8.6311    -2.5025 H       
  45 H45            0.0926    -5.2003    -2.2031 H       
  46 H46           -0.4382    -4.4333    -3.7896 H       
  47 H47            2.2100    -7.9154     0.7535 H       
  48 H48            4.5205    -8.7044    -0.8421 H       
  49 H49            3.6675    -9.3670     2.0112 H       
  50 H50            5.2034    -9.8802     1.2724 H       
  51 H51            5.7430    -7.4685     0.8290 H       
  52 H52            4.2571    -7.0105     1.6953 H       
  53 H53            5.0925    -8.1521     3.7319 H       
  54 H54            6.5785    -8.6101     2.8656 H       
  55 H55            6.2311    -6.8951     3.1916 H       
  56 H56            4.9749   -10.8259    -1.7505 H       
  57 H57            1.5045   -10.2590     0.6610 H       
  58 H58            0.6751   -12.4854     0.0351 H       
  59 H59            1.4725   -14.8906     0.4182 H       
  60 H60            0.6435   -17.1144    -0.2288 H       
  61 H61            1.3002   -16.1825    -4.3398 H       
  62 H62            2.1209   -13.9497    -3.7130 H       
@<TRIPOS>BOND
   1    1    2 1
   2    1    4 2
   3    1    5 1
   4    2    3 1
   5    2   38 1
   6    2   39 1
   7    3   14 1
   8    3   40 1
   9    3   41 1
  10    5   42 1
  11    6    7 1
  12    6   13 2
  13    6   14 am
  14    7    8 ar
  15    7   12 ar
  16    8    9 ar
  17    8   43 1
  18    9   10 ar
  19    9   44 1
  20   10   11 ar
  21   10   15 1
  22   11   12 ar
  23   12   45 1
  24   14   46 1
  25   15   16 1
  26   15   47 1
  27   16   17 1
  28   16   23 1
  29   16   48 1
  30   17   18 1
  31   17   49 1
  32   17   50 1
  33   18   19 1
  34   18   51 1
  35   18   52 1
  36   19   53 1
  37   19   54 1
  38   19   55 1
  39   20   21 ar
  40   20   25 ar
  41   20   26 1
  42   21   22 ar
  43   21   36 1
  44   22   23 ar
  45   22   56 1
  46   23   24 ar
  47   24   25 ar
  48   24   57 1
  49   25   58 1
  50   26   27 ar
  51   26   31 ar
  52   27   28 ar
  53   27   59 1
  54   28   29 ar
  55   28   60 1
  56   29   30 ar
  57   29   32 1
  58   30   31 ar
  59   30   61 1
  60   31   62 1
  61   32   33 1
  62   32   34 1
  63   32   35 1
  64   36   37 3

#	End of record

