#	Name: ASD04591123
#	Creating user name:	WinNT
#	Creation time:	15. 06. 2019 20:52

#	Modifying user name:	WinNT
#	Modification time:	15. 06. 2019 20:52

#	Program:	/corina/corina34_cracker 3.40 0067  02.08.2006

@<TRIPOS>MOLECULE
ASD04591123
  57   62    0    0    0
SMALL
NO_CHARGES


@<TRIPOS>ATOM
   1 N1            -0.0171     1.3233    -0.0119 N.ar    
   2 C2             0.0017    -0.0035    -0.0051 C.ar    
   3 N3             1.1298    -0.6949    -0.0118 N.ar    
   4 C4             2.3050    -0.0727    -0.0262 C.ar    
   5 C5             2.3189     1.3367    -0.0341 C.ar    
   6 C6             1.1071     2.0203    -0.0261 C.ar    
   7 N7             3.6029    -0.5189    -0.0362 N.pl3   
   8 C8             4.4817     0.5514    -0.0506 C.ar    
   9 C9             3.7311     1.7389    -0.0499 C.ar    
  10 C10            5.8705     0.6466    -0.0645 C.ar    
  11 N11            6.4580     1.8276    -0.0762 N.ar    
  12 C12            5.7742     2.9591    -0.0759 C.ar    
  13 C13            4.4066     2.9601    -0.0631 C.ar    
  14 N14           -1.2020    -0.6888     0.0098 N.pl3   
  15 C15           -2.4019     0.0119     0.1303 C.ar    
  16 C16            4.0024    -1.9284    -0.0315 C.3     
  17 N17           -2.3784     1.3196     0.3309 N.ar    
  18 C18           -3.4885     2.0229     0.4509 C.ar    
  19 C19           -4.7291     1.4086     0.3703 C.ar    
  20 C20           -4.7935     0.0320     0.1596 C.ar    
  21 C21           -3.6094    -0.6709     0.0326 C.ar    
  22 N22           -5.9024     2.1614     0.4995 N.3     
  23 C23           -5.5954     3.5823     0.7148 C.3     
  24 C24           -6.9000     4.3806     0.7711 C.3     
  25 N25           -7.7450     3.8574     1.8537 N.3     
  26 C26           -8.0520     2.4365     1.6384 C.3     
  27 C27           -6.7473     1.6382     1.5820 C.3     
  28 C28            3.4019    -2.6437     1.1963 C.3     
  29 C29            3.4389    -2.6400    -1.2740 C.3     
  30 C30            2.5156    -3.7630    -0.7578 C.3     
  31 C31            2.1027    -3.2939     0.6594 C.3     
  32 F32            6.6208    -0.4769    -0.0655 F       
  33 H33            1.0847     3.1001    -0.0322 H       
  34 H34            6.3051     3.8995    -0.0854 H       
  35 H35            3.8583     3.8906    -0.0633 H       
  36 H36           -1.2104    -1.6560    -0.0635 H       
  37 H37            5.0893    -2.0081    -0.0164 H       
  38 H38           -3.4302     3.0889     0.6140 H       
  39 H39           -5.7459    -0.4729     0.0929 H       
  40 H40           -3.6221    -1.7383    -0.1314 H       
  41 H41           -5.0564     3.6995     1.6549 H       
  42 H42           -4.9794     3.9497    -0.1061 H       
  43 H43           -6.6761     5.4305     0.9597 H       
  44 H44           -7.4258     4.2854    -0.1789 H       
  45 H45           -7.3107     4.0012     2.7530 H       
  46 H46           -8.6679     2.0691     2.4592 H       
  47 H47           -8.5909     2.3193     0.6982 H       
  48 H48           -6.9712     0.5883     1.3935 H       
  49 H49           -6.2215     1.7334     2.5321 H       
  50 H50            4.0864    -3.4075     1.5654 H       
  51 H51            3.1719    -1.9243     1.9823 H       
  52 H52            2.8682    -1.9367    -1.8804 H       
  53 H53            4.2523    -3.0659    -1.8614 H       
  54 H54            1.6389    -3.8605    -1.3980 H       
  55 H55            3.0570    -4.7076    -0.7043 H       
  56 H56            1.8115    -4.1430     1.2778 H       
  57 H57            1.2980    -2.5607     0.6044 H       
@<TRIPOS>BOND
   1    1    2 ar
   2    1    6 ar
   3    2    3 ar
   4    2   14 1
   5    3    4 ar
   6    4    5 ar
   7    4    7 1
   8    5    6 ar
   9    5    9 1
  10    6   33 1
  11    7    8 1
  12    7   16 1
  13    8    9 ar
  14    8   10 ar
  15    9   13 ar
  16   10   11 ar
  17   10   32 1
  18   11   12 ar
  19   12   13 ar
  20   12   34 1
  21   13   35 1
  22   14   15 1
  23   14   36 1
  24   15   17 ar
  25   15   21 ar
  26   16   29 1
  27   16   28 1
  28   16   37 1
  29   17   18 ar
  30   18   19 ar
  31   18   38 1
  32   19   20 ar
  33   19   22 1
  34   20   21 ar
  35   20   39 1
  36   21   40 1
  37   22   23 1
  38   22   27 1
  39   23   24 1
  40   23   41 1
  41   23   42 1
  42   24   25 1
  43   24   43 1
  44   24   44 1
  45   25   26 1
  46   25   45 1
  47   26   27 1
  48   26   46 1
  49   26   47 1
  50   27   48 1
  51   27   49 1
  52   28   31 1
  53   28   50 1
  54   28   51 1
  55   29   30 1
  56   29   52 1
  57   29   53 1
  58   30   31 1
  59   30   54 1
  60   30   55 1
  61   31   56 1
  62   31   57 1

#	End of record

