#	Name: ASD05430333
#	Creating user name:	WinNT
#	Creation time:	15. 06. 2019 21:00

#	Modifying user name:	WinNT
#	Modification time:	15. 06. 2019 21:00

#	Program:	/corina/corina34_cracker 3.40 0067  02.08.2006

@<TRIPOS>MOLECULE
ASD05430333
  31   32    0    0    0
SMALL
NO_CHARGES


@<TRIPOS>ATOM
   1 C1            -0.0168     1.3858     0.0097 C.ar    
   2 C2             0.0021    -0.0041     0.0020 C.ar    
   3 C3            -1.1919    -0.7111     0.0096 C.ar    
   4 C4            -2.3953    -0.0328     0.0247 C.ar    
   5 C5            -2.4122     1.3499     0.0322 C.ar    
   6 C6            -1.2252     2.0588     0.0306 C.ar    
   7 C7            -3.7272     2.0856     0.0487 C.3     
   8 C8            -3.8083     2.9574     1.3035 C.3     
   9 C9            -3.8320     2.9708    -1.1949 C.3     
  10 N10            1.2257    -0.6906    -0.0138 N.pl3   
  11 C11            2.2651    -0.4686    -0.8592 C.2     
  12 N12            3.2251    -1.3030    -0.5660 N.2     
  13 C13            2.8428    -2.0770     0.4604 C.2     
  14 C14            1.6000    -1.7081     0.8251 C.2     
  15 C15            3.6643    -3.1670     1.0992 C.3     
  16 F16            1.1432     2.0783     0.0023 F       
  17 H17           -1.1805    -1.7910     0.0033 H       
  18 H18           -3.3244    -0.5833     0.0302 H       
  19 H19           -1.2416     3.1386     0.0369 H       
  20 H20           -4.5461     1.3662     0.0526 H       
  21 H21           -2.9895     3.6768     1.2995 H       
  22 H22           -4.7595     3.4895     1.3154 H       
  23 H23           -3.7336     2.3268     2.1894 H       
  24 H24           -3.7743     2.3497    -2.0888 H       
  25 H25           -4.7832     3.5029    -1.1830 H       
  26 H26           -3.0132     3.6902    -1.1988 H       
  27 H27            2.2928     0.2740    -1.6429 H       
  28 H28            1.0089    -2.1365     1.6210 H       
  29 H29            4.2540    -2.7473     1.9143 H       
  30 H30            3.0020    -3.9394     1.4902 H       
  31 H31            4.3312    -3.6028     0.3552 H       
@<TRIPOS>BOND
   1    1    2 ar
   2    1   16 1
   3    1    6 ar
   4    2    3 ar
   5    2   10 1
   6    3    4 ar
   7    3   17 1
   8    4    5 ar
   9    4   18 1
  10    5    6 ar
  11    5    7 1
  12    6   19 1
  13    7    8 1
  14    7    9 1
  15    7   20 1
  16    8   21 1
  17    8   22 1
  18    8   23 1
  19    9   24 1
  20    9   25 1
  21    9   26 1
  22   10   11 1
  23   10   14 1
  24   11   12 2
  25   11   27 1
  26   12   13 1
  27   13   14 2
  28   13   15 1
  29   14   28 1
  30   15   29 1
  31   15   30 1
  32   15   31 1

#	End of record

