#	Name: ASD02448126
#	Creating user name:	WinNT
#	Creation time:	15. 06. 2019 20:21

#	Modifying user name:	WinNT
#	Modification time:	15. 06. 2019 20:21

#	Program:	/corina/corina34_cracker 3.40 0067  02.08.2006

@<TRIPOS>MOLECULE
ASD02448126
  75   80    0    0    0
SMALL
NO_CHARGES


@<TRIPOS>ATOM
   1 C1            -0.0945     1.3687    -0.0288 C.ar    
   2 C2            -0.0515    -0.0121    -0.0293 C.ar    
   3 C3             1.1716    -0.6705    -0.0294 C.ar    
   4 C4             2.3507     0.0594    -0.0289 C.ar    
   5 C5             2.3047     1.4468    -0.0284 C.ar    
   6 C6             1.0781     2.0994    -0.0283 C.ar    
   7 N7             3.4899     2.1857    -0.0274 N.am    
   8 C8             3.7006     3.5545    -0.5164 C.3     
   9 C9             5.1205     3.9843    -0.3343 C.2     
  10 N10            5.9180     3.0646     0.2271 N.am    
  11 S11            4.9890     1.7183     0.5361 S.o2    
  12 O12            5.5201     5.0794    -0.6687 O.2     
  13 O13            4.8930     1.5903     1.9481 O.2     
  14 O14            5.4489     0.6851    -0.3243 O.2     
  15 N15            1.2139    -2.0719    -0.0294 N.pl3   
  16 C16            1.8576    -2.8648    -0.9417 C.2     
  17 C17            0.6288    -2.8959     0.8793 C.2     
  18 N18            0.8853    -4.1320     0.5541 N.2     
  19 C19            1.6403    -4.1512    -0.5632 C.2     
  20 C20            2.1438    -5.3625    -1.2562 C.ar    
  21 C21            1.8444    -6.6300    -0.7568 C.ar    
  22 C22            2.9127    -5.2381    -2.4114 C.ar    
  23 C23            3.3789    -6.3680    -3.0527 C.ar    
  24 C24            3.0837    -7.6237    -2.5506 C.ar    
  25 C25            2.3158    -7.7539    -1.4060 C.ar    
  26 C26           -0.1840    -2.4529     2.0685 C.3     
  27 C27            0.6966    -2.4093     3.2906 C.ar    
  28 C28            1.4592    -1.2849     3.5506 C.ar    
  29 C29            0.7349    -3.4916     4.1512 C.ar    
  30 C30            1.5396    -3.4572     5.2720 C.ar    
  31 C31            2.3144    -2.3293     5.5359 C.ar    
  32 C32            2.2675    -1.2395     4.6684 C.ar    
  33 C33            3.1811    -2.2863     6.7388 C.ar    
  34 C34            2.6604    -2.6146     7.9885 C.ar    
  35 C35            4.5258    -1.9218     6.6228 C.ar    
  36 C36            5.3284    -1.8849     7.7520 C.ar    
  37 C37            4.8004    -2.2078     8.9874 C.ar    
  38 C38            3.4709    -2.5736     9.1047 C.ar    
  39 Cl39           3.6730    -9.0403    -3.3626 Cl      
  40 Cl40           0.8816    -6.7942     0.6784 Cl      
  41 O41            5.0438    -1.6055     5.4076 O.3     
  42 C42            6.4254    -1.2426     5.3658 C.3     
  43 C43            6.8253    -0.9227     3.9241 C.3     
  44 C44            8.3045    -0.5342     3.8794 C.3     
  45 C45            8.7044    -0.2143     2.4376 C.3     
  46 H46           -1.0468     1.8781    -0.0334 H       
  47 H47           -0.9699    -0.5803    -0.0294 H       
  48 H48            3.3027    -0.4505    -0.0286 H       
  49 H49            1.0413     3.1788    -0.0279 H       
  50 H50            3.4475     3.5980    -1.5758 H       
  51 H51            3.0487     4.2340     0.0326 H       
  52 H52            6.8630     3.1662     0.4207 H       
  53 H53            2.4273    -2.5319    -1.7967 H       
  54 H54            3.1432    -4.2591    -2.8048 H       
  55 H55            3.9749    -6.2721    -3.9482 H       
  56 H56            2.0886    -8.7358    -1.0180 H       
  57 H57           -0.5929    -1.4603     1.8797 H       
  58 H58           -0.9999    -3.1566     2.2334 H       
  59 H59            1.4224    -0.4412     2.8775 H       
  60 H60            0.1338    -4.3650     3.9459 H       
  61 H61            1.5685    -4.3026     5.9434 H       
  62 H62            2.8661    -0.3630     4.8679 H       
  63 H63            1.6233    -2.9006     8.0838 H       
  64 H64            6.3676    -1.6037     7.6662 H       
  65 H65            5.4292    -2.1785     9.8650 H       
  66 H66            3.0653    -2.8243    10.0737 H       
  67 H67            6.5897    -0.3654     5.9916 H       
  68 H68            7.0299    -2.0709     5.7353 H       
  69 H69            6.6610    -1.7999     3.2983 H       
  70 H70            6.2208    -0.0944     3.5546 H       
  71 H71            8.4688     0.3430     4.5052 H       
  72 H72            8.9090    -1.3625     4.2488 H       
  73 H73            8.0999     0.6141     2.0682 H       
  74 H74            9.7582     0.0625     2.4058 H       
  75 H75            8.5401    -1.0915     1.8118 H       
@<TRIPOS>BOND
   1    1    2 ar
   2    1    6 ar
   3    1   46 1
   4    2    3 ar
   5    2   47 1
   6    3    4 ar
   7    3   15 1
   8    4    5 ar
   9    4   48 1
  10    5    6 ar
  11    5    7 1
  12    6   49 1
  13    7    8 1
  14    7   11 am
  15    8    9 1
  16    8   50 1
  17    8   51 1
  18    9   10 am
  19    9   12 2
  20   10   11 am
  21   10   52 1
  22   11   13 2
  23   11   14 2
  24   15   16 1
  25   15   17 1
  26   16   19 2
  27   16   53 1
  28   17   18 2
  29   17   26 1
  30   18   19 1
  31   19   20 1
  32   20   21 ar
  33   20   22 ar
  34   21   40 1
  35   21   25 ar
  36   22   23 ar
  37   22   54 1
  38   23   24 ar
  39   23   55 1
  40   24   25 ar
  41   24   39 1
  42   25   56 1
  43   26   27 1
  44   26   57 1
  45   26   58 1
  46   27   28 ar
  47   27   29 ar
  48   28   32 ar
  49   28   59 1
  50   29   30 ar
  51   29   60 1
  52   30   31 ar
  53   30   61 1
  54   31   32 ar
  55   31   33 1
  56   32   62 1
  57   33   34 ar
  58   33   35 ar
  59   34   38 ar
  60   34   63 1
  61   35   36 ar
  62   35   41 1
  63   36   37 ar
  64   36   64 1
  65   37   38 ar
  66   37   65 1
  67   38   66 1
  68   41   42 1
  69   42   43 1
  70   42   67 1
  71   42   68 1
  72   43   44 1
  73   43   69 1
  74   43   70 1
  75   44   45 1
  76   44   71 1
  77   44   72 1
  78   45   73 1
  79   45   74 1
  80   45   75 1

#	End of record

