#	Name: ASD01811698
#	Creating user name:	WinNT
#	Creation time:	15. 06. 2019 19:27

#	Modifying user name:	WinNT
#	Modification time:	15. 06. 2019 19:27

#	Program:	/corina/corina34_cracker 3.40 0067  02.08.2006

@<TRIPOS>MOLECULE
ASD01811698
  52   55    0    0    0
SMALL
NO_CHARGES


@<TRIPOS>ATOM
   1 C1            -0.0167     1.3805     0.0096 C.ar    
   2 C2             0.0021    -0.0041     0.0020 C.ar    
   3 C3            -1.1845    -0.7161     0.0090 C.ar    
   4 C4            -2.3942    -0.0535     0.0241 C.ar    
   5 C5            -2.4213     1.3425     0.0323 C.ar    
   6 C6            -1.2177     2.0512     0.0304 C.ar    
   7 C7             1.2777     2.1522     0.0014 C.3     
   8 C8             1.3184    -0.7376    -0.0144 C.3     
   9 C9            -1.1549    -2.2228    -0.0004 C.3     
  10 C10           -1.0078    -2.7311     1.4107 C.ar    
  11 C11           -3.5309     2.3149     0.0477 C.2     
  12 N12           -3.0504     3.5703     0.0501 N.am    
  13 C13           -1.5841     3.5142     0.0402 C.3     
  14 O14           -4.7107     2.0226     0.0563 O.2     
  15 C15           -2.1354    -2.9875     2.1711 C.ar    
  16 C16           -2.0101    -3.4529     3.4633 C.ar    
  17 C17           -0.7411    -3.6660     4.0058 C.ar    
  18 C18            0.3952    -3.4051     3.2325 C.ar    
  19 C19            0.2530    -2.9443     1.9369 C.ar    
  20 C20           -3.8575     4.7928     0.0640 C.3     
  21 C21           -4.7300     4.8158     1.3228 C.3     
  22 C22           -5.6250     6.0585     1.2877 C.3     
  23 C23           -6.4581     6.0417     0.0035 C.3     
  24 O24           -5.5864     5.9891    -1.1276 O.3     
  25 C25           -4.7589     4.8249    -1.1729 C.3     
  26 O26           -3.8957     4.8602     2.4821 O.3     
  27 F27            1.6273    -3.6081     3.7483 F       
  28 C28           -0.6036    -4.1486     5.3470 C.1     
  29 N29           -0.4945    -4.5315     6.4110 N.1     
  30 H30           -3.3180    -0.6130     0.0291 H       
  31 H31            1.5800     2.3437    -1.0282 H       
  32 H32            1.1390     3.0999     0.5217 H       
  33 H33            2.0504     1.5710     0.5048 H       
  34 H34            1.6456    -0.9199     1.0092 H       
  35 H35            1.1977    -1.6891    -0.5323 H       
  36 H36            2.0641    -0.1342    -0.5322 H       
  37 H37           -2.0831    -2.6018    -0.4281 H       
  38 H38           -0.3118    -2.5659    -0.5999 H       
  39 H39           -1.1849     3.9949     0.9333 H       
  40 H40           -1.1966     4.0028    -0.8538 H       
  41 H41           -3.1166    -2.8223     1.7513 H       
  42 H42           -2.8917    -3.6518     4.0546 H       
  43 H43            1.1285    -2.7421     1.3377 H       
  44 H44           -3.2017     5.6635     0.0595 H       
  45 H45           -5.3507     3.9203     1.3527 H       
  46 H46           -6.2885     6.0540     2.1525 H       
  47 H47           -5.0048     6.9547     1.3079 H       
  48 H48           -7.1075     5.1663     0.0029 H       
  49 H49           -7.0657     6.9452    -0.0475 H       
  50 H50           -4.1424     4.8519    -2.0714 H       
  51 H51           -5.3861     3.9336    -1.1889 H       
  52 H52           -4.3831     4.8767     3.3171 H       
@<TRIPOS>BOND
   1    1    2 ar
   2    1    7 1
   3    1    6 ar
   4    2    3 ar
   5    2    8 1
   6    3    4 ar
   7    3    9 1
   8    4    5 ar
   9    4   30 1
  10    5    6 ar
  11    5   11 1
  12    6   13 1
  13    7   31 1
  14    7   32 1
  15    7   33 1
  16    8   34 1
  17    8   35 1
  18    8   36 1
  19    9   10 1
  20    9   37 1
  21    9   38 1
  22   10   15 ar
  23   10   19 ar
  24   11   12 am
  25   11   14 2
  26   12   13 1
  27   12   20 1
  28   13   39 1
  29   13   40 1
  30   15   16 ar
  31   15   41 1
  32   16   17 ar
  33   16   42 1
  34   17   28 1
  35   17   18 ar
  36   18   19 ar
  37   18   27 1
  38   19   43 1
  39   20   21 1
  40   20   25 1
  41   20   44 1
  42   21   22 1
  43   21   26 1
  44   21   45 1
  45   22   23 1
  46   22   46 1
  47   22   47 1
  48   23   24 1
  49   23   48 1
  50   23   49 1
  51   24   25 1
  52   25   50 1
  53   25   51 1
  54   26   52 1
  55   28   29 3

#	End of record

