#	Name: ASD01913735
#	Creating user name:	WinNT
#	Creation time:	15. 06. 2019 20:02

#	Modifying user name:	WinNT
#	Modification time:	15. 06. 2019 20:02

#	Program:	/corina/corina34_cracker 3.40 0067  02.08.2006

@<TRIPOS>MOLECULE
ASD01913735
  49   50    0    0    0
SMALL
NO_CHARGES


@<TRIPOS>ATOM
   1 O1             0.2285     1.3399    -0.0741 O.3     
   2 C2             0.1244    -0.0106    -0.0394 C.ar    
   3 N3             1.2228    -0.7490    -0.0024 N.ar    
   4 C4             1.1739    -2.0642     0.0322 C.ar    
   5 C5            -0.0522    -2.7302     0.0305 C.ar    
   6 C6            -1.2352    -1.9772    -0.0083 C.ar    
   7 C7            -1.1356    -0.6015    -0.0375 C.ar    
   8 C8            -0.1038    -4.2049     0.0683 C.2     
   9 N9             1.0347    -4.9214    -0.0159 N.am    
  10 O10           -1.1732    -4.7733     0.1755 O.2     
  11 C11            1.5476     1.8893    -0.0683 C.3     
  12 C12            1.4655     3.3935    -0.1100 C.ar    
  13 C13            1.4083     4.1339     1.0609 C.ar    
  14 C14            1.3341     5.5118     0.9834 C.ar    
  15 N15            1.3171     6.1217    -0.1857 N.ar    
  16 C16            1.3701     5.4499    -1.3192 C.ar    
  17 C17            1.4513     4.0702    -1.3201 C.ar    
  18 C18            0.9835    -6.3850     0.0216 C.3     
  19 C19           -2.5816    -2.6541    -0.0116 C.3     
  20 C20            2.4017    -6.9480    -0.0908 C.3     
  21 C21            2.3482    -8.4766    -0.0515 C.3     
  22 C22            1.5026    -8.9875    -1.2198 C.3     
  23 C23            3.7665    -9.0395    -0.1640 C.3     
  24 C24            1.7222    -8.9313     1.2684 C.3     
  25 H25            2.0914    -2.6331     0.0618 H       
  26 H26           -2.0254     0.0098    -0.0673 H       
  27 H27            1.8879    -4.4680    -0.1015 H       
  28 H28            2.0665     1.5788     0.8386 H       
  29 H29            2.0943     1.5310    -0.9405 H       
  30 H30            1.4211     3.6401     2.0213 H       
  31 H31            1.2892     6.0958     1.8908 H       
  32 H32            1.3537     5.9842    -2.2576 H       
  33 H33            1.4947     3.5256    -2.2517 H       
  34 H34            0.5375    -6.7090     0.9620 H       
  35 H35            0.3810    -6.7490    -0.8106 H       
  36 H36           -2.8701    -2.8943     1.0117 H       
  37 H37           -3.3228    -1.9865    -0.4509 H       
  38 H38           -2.5257    -3.5712    -0.5981 H       
  39 H39            2.8477    -6.6241    -1.0311 H       
  40 H40            3.0041    -6.5840     0.7415 H       
  41 H41            1.9486    -8.6635    -2.1601 H       
  42 H42            1.4646   -10.0765    -1.1918 H       
  43 H43            0.4923    -8.5864    -1.1397 H       
  44 H44            4.3689    -8.6755     0.6683 H       
  45 H45            3.7284   -10.1285    -0.1360 H       
  46 H46            4.2125    -8.7156    -1.1043 H       
  47 H47            0.7118    -8.5302     1.3485 H       
  48 H48            1.6841   -10.0202     1.2964 H       
  49 H49            2.3246    -8.5673     2.1007 H       
@<TRIPOS>BOND
   1    1    2 1
   2    1   11 1
   3    2    3 ar
   4    2    7 ar
   5    3    4 ar
   6    4    5 ar
   7    4   25 1
   8    5    6 ar
   9    5    8 1
  10    6    7 ar
  11    6   19 1
  12    7   26 1
  13    8    9 am
  14    8   10 2
  15    9   18 1
  16    9   27 1
  17   11   12 1
  18   11   28 1
  19   11   29 1
  20   12   13 ar
  21   12   17 ar
  22   13   14 ar
  23   13   30 1
  24   14   15 ar
  25   14   31 1
  26   15   16 ar
  27   16   17 ar
  28   16   32 1
  29   17   33 1
  30   18   20 1
  31   18   34 1
  32   18   35 1
  33   19   36 1
  34   19   37 1
  35   19   38 1
  36   20   21 1
  37   20   39 1
  38   20   40 1
  39   21   22 1
  40   21   23 1
  41   21   24 1
  42   22   41 1
  43   22   42 1
  44   22   43 1
  45   23   44 1
  46   23   45 1
  47   23   46 1
  48   24   47 1
  49   24   48 1
  50   24   49 1

#	End of record

