#	Name: ASD01882428
#	Creating user name:	WinNT
#	Creation time:	15. 06. 2019 19:44

#	Modifying user name:	WinNT
#	Modification time:	15. 06. 2019 19:44

#	Program:	/corina/corina34_cracker 3.40 0067  02.08.2006

@<TRIPOS>MOLECULE
ASD01882428
  52   56    0    0    0
SMALL
NO_CHARGES


@<TRIPOS>ATOM
   1 C1             0.1338     0.8859     2.1838 C.2     
   2 C2             0.4551    -0.4593     1.9310 C.2     
   3 C3             0.7113    -0.8534     0.6452 C.2     
   4 C4             0.6484     0.0939    -0.3994 C.2     
   5 C5             0.3384     1.3782    -0.1343 C.2     
   6 N6             0.0813     1.7816     1.1437 N.pl3   
   7 N7            -0.3843     2.7917     2.9886 N.2     
   8 N8            -0.1629     1.5594     3.2849 N.2     
   9 C9            -0.2502     2.9810     1.7022 C.2     
  10 N10            1.0323    -2.1804     0.3696 N.pl3   
  11 C11            2.3460    -2.5330    -0.1859 C.3     
  12 C12            2.1373    -3.3606    -1.4581 C.3     
  13 C13            1.2465    -4.5634    -1.1391 C.3     
  14 C14           -0.1192    -4.0739    -0.6519 C.3     
  15 C15            0.0659    -3.2550     0.6347 C.3     
  16 C16            1.0669    -5.3985    -2.3806 C.ar    
  17 C17            0.2153    -4.9727    -3.3828 C.ar    
  18 C18            0.0505    -5.7387    -4.5216 C.ar    
  19 C19            0.7377    -6.9303    -4.6584 C.ar    
  20 C20            1.5900    -7.3557    -3.6567 C.ar    
  21 C21            1.7581    -6.5875    -2.5198 C.ar    
  22 C22            1.4642    -2.4954    -2.5255 C.3     
  23 C23           -0.4314     4.2855     0.9697 C.3     
  24 C24           -1.8912     4.4276     0.5345 C.3     
  25 C25           -2.3068     5.7440    -0.1252 C.3     
  26 C26           -2.1794     4.4730    -0.9674 C.3     
  27 Cl27           0.5268    -1.6056     3.2327 Cl      
  28 H28            0.8500    -0.2118    -1.4154 H       
  29 H29            0.2933     2.0950    -0.9408 H       
  30 H30            2.8964    -1.6238    -0.4277 H       
  31 H31            2.9058    -3.1186     0.5432 H       
  32 H32            3.1017    -3.7098    -1.8272 H       
  33 H33            1.7150    -5.1660    -0.3610 H       
  34 H34           -0.5775    -3.4508    -1.4199 H       
  35 H35           -0.7610    -4.9308    -0.4471 H       
  36 H36            0.4436    -3.8983     1.4294 H       
  37 H37           -0.8885    -2.8223     0.9346 H       
  38 H38           -0.3216    -4.0417    -3.2758 H       
  39 H39           -0.6154    -5.4064    -5.3042 H       
  40 H40            0.6084    -7.5292    -5.5479 H       
  41 H41            2.1266    -8.2868    -3.7635 H       
  42 H42            2.4268    -6.9180    -1.7387 H       
  43 H43            2.0474    -1.5873    -2.6780 H       
  44 H44            1.4067    -3.0517    -3.4610 H       
  45 H45            0.4589    -2.2308    -2.1978 H       
  46 H46           -0.1667     5.1121     1.6290 H       
  47 H47            0.2130     4.3011     0.0907 H       
  48 H48           -2.6225     3.9317     1.1729 H       
  49 H49           -3.3116     6.1140     0.0788 H       
  50 H50           -1.5401     6.5088    -0.2492 H       
  51 H51           -1.3290     4.4016    -1.6455 H       
  52 H52           -3.1004     4.0068    -1.3175 H       
@<TRIPOS>BOND
   1    1    2 1
   2    1    6 1
   3    1    8 2
   4    2    3 2
   5    2   27 1
   6    3    4 1
   7    3   10 1
   8    4    5 2
   9    4   28 1
  10    5    6 1
  11    5   29 1
  12    6    9 1
  13    7    8 1
  14    7    9 2
  15    9   23 1
  16   10   11 1
  17   10   15 1
  18   11   12 1
  19   11   30 1
  20   11   31 1
  21   12   13 1
  22   12   22 1
  23   12   32 1
  24   13   14 1
  25   13   16 1
  26   13   33 1
  27   14   15 1
  28   14   34 1
  29   14   35 1
  30   15   36 1
  31   15   37 1
  32   16   17 ar
  33   16   21 ar
  34   17   18 ar
  35   17   38 1
  36   18   19 ar
  37   18   39 1
  38   19   20 ar
  39   19   40 1
  40   20   21 ar
  41   20   41 1
  42   21   42 1
  43   22   43 1
  44   22   44 1
  45   22   45 1
  46   23   24 1
  47   23   46 1
  48   23   47 1
  49   24   25 1
  50   24   26 1
  51   24   48 1
  52   25   26 1
  53   25   49 1
  54   25   50 1
  55   26   51 1
  56   26   52 1

#	End of record

