#	Name: ASD01813030
#	Creating user name:	WinNT
#	Creation time:	15. 06. 2019 19:29

#	Modifying user name:	WinNT
#	Modification time:	15. 06. 2019 19:29

#	Program:	/corina/corina34_cracker 3.40 0067  02.08.2006

@<TRIPOS>MOLECULE
ASD01813030
  57   60    0    0    0
SMALL
NO_CHARGES


@<TRIPOS>ATOM
   1 C1            -1.1736     2.9517     1.2277 C.2     
   2 C2            -1.4289     1.6430     1.0628 C.2     
   3 N3            -0.4165     0.7581     0.8205 N.pl3   
   4 C4             0.8712     1.1147     0.7442 C.2     
   5 C5             1.2361     2.4361     0.9102 C.2     
   6 C6             0.1702     3.4146     1.1614 C.2     
   7 O7             0.4317     4.5968     1.3171 O.2     
   8 C8            -0.7582    -0.6544     0.6351 C.3     
   9 C9            -0.6315    -1.3787     1.9505 C.ar    
  10 C10           -2.2466     3.9778     1.4774 C.3     
  11 C11           -3.5370     3.3091     1.9463 C.3     
  12 C12           -3.8685     2.1737     0.9699 C.3     
  13 C13           -2.8243     1.0739     1.1432 C.3     
  14 C14           -1.7523    -1.5849     2.7343 C.ar    
  15 C15           -1.6421    -2.2481     3.9397 C.ar    
  16 C16           -0.3989    -2.7102     4.3665 C.ar    
  17 C17            0.7269    -2.4997     3.5730 C.ar    
  18 C18            0.6043    -1.8400     2.3669 C.ar    
  19 C19           -0.2741    -3.4235     5.6619 C.ar    
  20 C20           -1.4005    -3.6332     6.4552 C.ar    
  21 C21           -1.2829    -4.2966     7.6606 C.ar    
  22 C22           -0.0503    -4.7546     8.0845 C.ar    
  23 C23            1.0786    -4.5504     7.2995 C.ar    
  24 C24            0.9677    -3.8900     6.0850 C.ar    
  25 O25           -1.7991     4.8918     2.4806 O.3     
  26 N26            2.3234    -5.0143     7.7315 N.pl3   
  27 C27            2.4645    -5.5961     9.0686 C.3     
  28 C28            3.4877    -4.9191     6.8474 C.3     
  29 C29            2.6458     2.8507     0.8335 C.2     
  30 O30            3.5115     2.0246     0.6209 O.2     
  31 O31            2.9770     4.1467     0.9989 O.3     
  32 H32            1.6268     0.3671     0.5528 H       
  33 H33           -1.7829    -0.7358     0.2727 H       
  34 H34           -0.0792    -1.1000    -0.0919 H       
  35 H35           -2.4409     4.5254     0.5552 H       
  36 H36           -3.3982     2.9037     2.9485 H       
  37 H37           -4.3478     4.0375     1.9524 H       
  38 H38           -4.8598     1.7774     1.1898 H       
  39 H39           -3.8407     2.5488    -0.0532 H       
  40 H40           -2.9539     0.3292     0.3579 H       
  41 H41           -2.9622     0.5981     2.1141 H       
  42 H42           -2.7154    -1.2260     2.4027 H       
  43 H43           -2.5179    -2.4082     4.5511 H       
  44 H44            1.6930    -2.8555     3.8993 H       
  45 H45            1.4762    -1.6766     1.7508 H       
  46 H46           -2.3656    -3.2763     6.1273 H       
  47 H47           -2.1572    -4.4577     8.2739 H       
  48 H48            0.0365    -5.2723     9.0284 H       
  49 H49            1.8434    -3.7301     5.4734 H       
  50 H50           -2.4391     5.5840     2.6957 H       
  51 H51            2.2856    -6.6702     9.0182 H       
  52 H52            3.4728    -5.4128     9.4400 H       
  53 H53            1.7403    -5.1383     9.7423 H       
  54 H54            3.1732    -4.5512     5.8708 H       
  55 H55            4.2154    -4.2310     7.2778 H       
  56 H56            3.9408    -5.9042     6.7360 H       
  57 H57            3.9158     4.3708     0.9398 H       
@<TRIPOS>BOND
   1    1    2 2
   2    1   10 1
   3    1    6 1
   4    2    3 1
   5    2   13 1
   6    3    4 1
   7    3    8 1
   8    4    5 2
   9    4   32 1
  10    5    6 1
  11    5   29 1
  12    6    7 2
  13    8    9 1
  14    8   33 1
  15    8   34 1
  16    9   14 ar
  17    9   18 ar
  18   10   11 1
  19   10   25 1
  20   10   35 1
  21   11   12 1
  22   11   36 1
  23   11   37 1
  24   12   13 1
  25   12   38 1
  26   12   39 1
  27   13   40 1
  28   13   41 1
  29   14   15 ar
  30   14   42 1
  31   15   16 ar
  32   15   43 1
  33   16   17 ar
  34   16   19 1
  35   17   18 ar
  36   17   44 1
  37   18   45 1
  38   19   20 ar
  39   19   24 ar
  40   20   21 ar
  41   20   46 1
  42   21   22 ar
  43   21   47 1
  44   22   23 ar
  45   22   48 1
  46   23   24 ar
  47   23   26 1
  48   24   49 1
  49   25   50 1
  50   26   27 1
  51   26   28 1
  52   27   51 1
  53   27   52 1
  54   27   53 1
  55   28   54 1
  56   28   55 1
  57   28   56 1
  58   29   30 2
  59   29   31 1
  60   31   57 1

#	End of record

