#	Name: ASD03730118
#	Creating user name:	WinNT
#	Creation time:	15. 06. 2019 20:44

#	Modifying user name:	WinNT
#	Modification time:	15. 06. 2019 20:44

#	Program:	/corina/corina34_cracker 3.40 0067  02.08.2006

@<TRIPOS>MOLECULE
ASD03730118
  52   57    0    0    0
SMALL
NO_CHARGES


@<TRIPOS>ATOM
   1 C1            -0.0186     1.5023     0.0156 C.2     
   2 C2             0.0014    -0.0045     0.0125 C.3     
   3 O3             1.0237     2.1226     0.0095 O.2     
   4 N4            -1.1946     2.1607     0.0195 N.am    
   5 C5            -1.2153     3.5552     0.1328 C.ar    
   6 C6            -2.1834     4.2935    -0.5359 C.ar    
   7 C7            -2.2011     5.6696    -0.4220 C.ar    
   8 C8            -1.2563     6.3127     0.3567 C.ar    
   9 C9            -0.2910     5.5808     1.0232 C.ar    
  10 C10           -0.2717     4.2035     0.9184 C.ar    
  11 C11           -3.2507     6.4714    -1.1475 C.3     
  12 F12           -4.3727     6.6227    -0.3257 F       
  13 F13           -2.7352     7.7314    -1.4695 F       
  14 F14           -3.6188     5.8044    -2.3209 F       
  15 O15            6.2408     2.8840     2.1141 O.3     
  16 C16            7.6607     2.8282     2.3462 C.3     
  17 O17            7.8715     1.4999     2.8603 O.3     
  18 C18            6.8615     0.7419     2.3406 C.ar    
  19 C19            5.8587     1.5936     1.8828 C.ar    
  20 C20            6.7147    -0.6281     2.2181 C.ar    
  21 C21            5.5683    -1.1656     1.6408 C.ar    
  22 C22            4.5697    -0.3051     1.1948 C.ar    
  23 C23            4.7158     1.0616     1.3098 C.ar    
  24 O24            5.2361    -2.4685     1.4118 O.3     
  25 C25            3.4646    -1.1734     0.6556 C.3     
  26 C26            3.8149    -2.5659     1.1974 C.3     
  27 N27            1.3889    -0.4745     0.0019 N.am    
  28 C28            2.1092    -0.7186     1.1148 C.2     
  29 C29            3.4037    -1.1550    -0.8430 C.ar    
  30 C30            4.3076    -1.4610    -1.8358 C.ar    
  31 C31            3.9436    -1.3417    -3.1652 C.ar    
  32 C32            2.6703    -0.9138    -3.4944 C.ar    
  33 C33            1.7616    -0.6052    -2.5037 C.ar    
  34 C34            2.1192    -0.7228    -1.1628 C.ar    
  35 O35            1.7357    -0.5953     2.2621 O.2     
  36 H36           -0.5014    -0.3763     0.9053 H       
  37 H37           -0.5138    -0.3729    -0.8746 H       
  38 H38           -2.0266     1.6678    -0.0563 H       
  39 H39           -2.9212     3.7918    -1.1444 H       
  40 H40           -1.2722     7.3891     0.4441 H       
  41 H41            0.4456     6.0860     1.6302 H       
  42 H42            0.4794     3.6319     1.4433 H       
  43 H43            8.2071     2.9691     1.4136 H       
  44 H44            7.9581     3.5753     3.0821 H       
  45 H45            7.4951    -1.2850     2.5730 H       
  46 H46            3.9366     1.7185     0.9524 H       
  47 H47            3.5864    -3.3365     0.4611 H       
  48 H48            3.2942    -2.7586     2.1354 H       
  49 H49            5.3015    -1.7948    -1.5764 H       
  50 H50            4.6520    -1.5824    -3.9440 H       
  51 H51            2.3862    -0.8205    -4.5322 H       
  52 H52            0.7694    -0.2711    -2.7687 H       
@<TRIPOS>BOND
   1    1    2 1
   2    1    3 2
   3    1    4 am
   4    2   27 1
   5    2   36 1
   6    2   37 1
   7    4    5 1
   8    4   38 1
   9    5    6 ar
  10    5   10 ar
  11    6    7 ar
  12    6   39 1
  13    7    8 ar
  14    7   11 1
  15    8    9 ar
  16    8   40 1
  17    9   10 ar
  18    9   41 1
  19   10   42 1
  20   11   12 1
  21   11   13 1
  22   11   14 1
  23   15   16 1
  24   15   19 1
  25   16   17 1
  26   16   43 1
  27   16   44 1
  28   17   18 1
  29   18   19 ar
  30   18   20 ar
  31   19   23 ar
  32   20   21 ar
  33   20   45 1
  34   21   22 ar
  35   21   24 1
  36   22   23 ar
  37   22   25 1
  38   23   46 1
  39   24   26 1
  40   25   26 1
  41   25   28 1
  42   25   29 1
  43   26   47 1
  44   26   48 1
  45   27   28 am
  46   27   34 1
  47   28   35 2
  48   29   30 ar
  49   29   34 ar
  50   30   31 ar
  51   30   49 1
  52   31   32 ar
  53   31   50 1
  54   32   33 ar
  55   32   51 1
  56   33   34 ar
  57   33   52 1

#	End of record

