#	Name: ASD03092724
#	Creating user name:	WinNT
#	Creation time:	15. 06. 2019 20:33

#	Modifying user name:	WinNT
#	Modification time:	15. 06. 2019 20:33

#	Program:	/corina/corina34_cracker 3.40 0067  02.08.2006

@<TRIPOS>MOLECULE
ASD03092724
  44   46    0    0    0
SMALL
NO_CHARGES


@<TRIPOS>ATOM
   1 C1             0.0246     1.1858     0.0030 C.2     
   2 O2            -0.6775     1.1949     0.9959 O.2     
   3 C3             2.5226     1.2867     0.1078 C.ar    
   4 C4             1.2859     1.9474    -0.0145 C.ar    
   5 C5             1.2744     3.3388    -0.1534 C.ar    
   6 C6             2.4959     4.0113    -0.1644 C.ar    
   7 C7             3.6777     3.2811    -0.0377 C.ar    
   8 N8             3.6565     1.9704     0.0913 N.ar    
   9 N9             2.5535    -0.0871     0.2516 N.pl3   
  10 C10            3.8369    -0.7934     0.2654 C.3     
  11 C11            3.5914    -2.2939     0.4358 C.3     
  12 C12            4.9318    -3.0316     0.4502 C.3     
  13 C13            2.5383     5.4874    -0.3097 C.ar    
  14 C14            3.7619     6.1539    -0.3199 C.ar    
  15 C15            3.7960     7.5268    -0.4553 C.ar    
  16 C16            2.6172     8.2418    -0.5803 C.ar    
  17 C17            1.3990     7.5842    -0.5702 C.ar    
  18 C18            1.3547     6.2109    -0.4421 C.ar    
  19 Cl19           2.6667     9.9688    -0.7497 Cl      
  20 C20           -0.3841     0.4062    -1.1836 C.ar    
  21 C21           -1.5158    -0.4110    -1.1301 C.ar    
  22 C22           -1.8920    -1.1360    -2.2407 C.ar    
  23 C23           -1.1500    -1.0558    -3.4079 C.ar    
  24 C24           -0.0265    -0.2475    -3.4671 C.ar    
  25 C25            0.3562     0.4877    -2.3653 C.ar    
  26 Cl26          -1.6299    -1.9723    -4.8020 Cl      
  27 H27            0.3439     3.8785    -0.2500 H       
  28 H28            4.6254     3.7989    -0.0458 H       
  29 H29            1.7255    -0.5839     0.3434 H       
  30 H30            4.3599    -0.6151    -0.6742 H       
  31 H31            4.4438    -0.4281     1.0939 H       
  32 H32            3.0685    -2.4722     1.3754 H       
  33 H33            2.9846    -2.6592    -0.3927 H       
  34 H34            5.4547    -2.8533    -0.4894 H       
  35 H35            5.5386    -2.6663     1.2787 H       
  36 H36            4.7569    -4.1006     0.5716 H       
  37 H37            4.6821     5.5971    -0.2218 H       
  38 H38            4.7439     8.0444    -0.4634 H       
  39 H39            0.4820     8.1465    -0.6673 H       
  40 H40            0.4042     5.6983    -0.4395 H       
  41 H41           -2.0946    -0.4749    -0.2205 H       
  42 H42           -2.7667    -1.7682    -2.2007 H       
  43 H43            0.5481    -0.1894    -4.3798 H       
  44 H44            1.2294     1.1214    -2.4143 H       
@<TRIPOS>BOND
   1    1    2 2
   2    1    4 1
   3    1   20 1
   4    3    4 ar
   5    3    8 ar
   6    3    9 1
   7    4    5 ar
   8    5    6 ar
   9    5   27 1
  10    6    7 ar
  11    6   13 1
  12    7    8 ar
  13    7   28 1
  14    9   10 1
  15    9   29 1
  16   10   11 1
  17   10   30 1
  18   10   31 1
  19   11   12 1
  20   11   32 1
  21   11   33 1
  22   12   34 1
  23   12   35 1
  24   12   36 1
  25   13   14 ar
  26   13   18 ar
  27   14   15 ar
  28   14   37 1
  29   15   16 ar
  30   15   38 1
  31   16   17 ar
  32   16   19 1
  33   17   18 ar
  34   17   39 1
  35   18   40 1
  36   20   21 ar
  37   20   25 ar
  38   21   22 ar
  39   21   41 1
  40   22   23 ar
  41   22   42 1
  42   23   24 ar
  43   23   26 1
  44   24   25 ar
  45   24   43 1
  46   25   44 1

#	End of record

