#	Name: ASD01915154
#	Creating user name:	WinNT
#	Creation time:	15. 06. 2019 20:04

#	Modifying user name:	WinNT
#	Modification time:	15. 06. 2019 20:04

#	Program:	/corina/corina34_cracker 3.40 0067  02.08.2006

@<TRIPOS>MOLECULE
ASD01915154
  32   33    0    0    0
SMALL
NO_CHARGES


@<TRIPOS>ATOM
   1 C1            -0.0159     1.3197     0.0093 C.ar    
   2 N2             0.0021    -0.0041     0.0020 N.ar    
   3 C3            -1.1216    -0.6983     0.0095 C.ar    
   4 C4            -2.3431    -0.0123     0.0253 C.ar    
   5 C5            -2.3158     1.3885     0.0325 C.ar    
   6 N6            -1.1479     2.0057     0.0293 N.ar    
   7 C7            -3.5860    -0.7235     0.0333 C.1     
   8 C8            -4.6049    -1.3067     0.0400 C.1     
   9 C9            -5.8477    -2.0179     0.0480 C.ar    
  10 C10           -7.0569    -1.3182     0.0638 C.ar    
  11 C11           -8.2502    -2.0101     0.0710 C.ar    
  12 C12           -8.2516    -3.3937     0.0627 C.ar    
  13 C13           -7.0577    -4.0936     0.0470 C.ar    
  14 C14           -5.8571    -3.4154     0.0343 C.ar    
  15 O15            1.1596     1.9924     0.0017 O.3     
  16 C16            2.5063     3.9991    -0.0004 C.3     
  17 C17            1.0903     3.4197     0.0100 C.3     
  18 C18           -7.0699    -5.6005     0.0380 C.3     
  19 H19           -1.0991    -1.7781     0.0031 H       
  20 H20           -3.2353     1.9549     0.0447 H       
  21 H21           -7.0573    -0.2382     0.0707 H       
  22 H22           -9.1857    -1.4706     0.0836 H       
  23 H23           -9.1889    -3.9301     0.0687 H       
  24 H24           -4.9262    -3.9629     0.0222 H       
  25 H25            3.0456     3.6563     0.8826 H       
  26 H26            3.0286     3.6659    -0.8972 H       
  27 H27            2.4534     5.0878     0.0060 H       
  28 H28            0.5509     3.7624    -0.8730 H       
  29 H29            0.5679     3.7528     0.9068 H       
  30 H30           -7.0827    -5.9576    -0.9917 H       
  31 H31           -6.1781    -5.9741     0.5411 H       
  32 H32           -7.9579    -5.9598     0.5582 H       
@<TRIPOS>BOND
   1    1    2 ar
   2    1   15 1
   3    1    6 ar
   4    2    3 ar
   5    3    4 ar
   6    3   19 1
   7    4    5 ar
   8    4    7 1
   9    5    6 ar
  10    5   20 1
  11    7    8 3
  12    8    9 1
  13    9   10 ar
  14    9   14 ar
  15   10   11 ar
  16   10   21 1
  17   11   12 ar
  18   11   22 1
  19   12   13 ar
  20   12   23 1
  21   13   14 ar
  22   13   18 1
  23   14   24 1
  24   15   17 1
  25   16   17 1
  26   16   25 1
  27   16   26 1
  28   16   27 1
  29   17   28 1
  30   17   29 1
  31   18   30 1
  32   18   31 1
  33   18   32 1

#	End of record

