#	Name: ASD02500176
#	Creating user name:	WinNT
#	Creation time:	15. 06. 2019 20:22

#	Modifying user name:	WinNT
#	Modification time:	15. 06. 2019 20:22

#	Program:	/corina/corina34_cracker 3.40 0067  02.08.2006

@<TRIPOS>MOLECULE
ASD02500176
  64   68    0    0    0
SMALL
NO_CHARGES


@<TRIPOS>ATOM
   1 N1             0.4294     3.7287     0.8436 N.am    
   2 C2             0.0238     2.3374     0.5993 C.3     
   3 C3             0.6180     1.8816    -0.7392 C.3     
   4 N4             2.0491     2.2156    -0.7557 N.am    
   5 C5             2.4547     3.6069    -0.5114 C.3     
   6 C6             1.8605     4.0627     0.8271 C.3     
   7 C7            -0.4949     4.6824     1.0732 C.2     
   8 O8            -1.6756     4.3952     1.0794 O.2     
   9 O9            -0.1099     5.9537     1.2957 O.3     
  10 C10            2.9731     1.2629    -0.9903 C.2     
  11 C11            4.3947     1.6321    -1.1282 C.ar    
  12 C12            5.3916     0.7580    -0.6849 C.ar    
  13 C13            6.7167     1.1054    -0.8149 C.ar    
  14 C14            7.0651     2.3257    -1.3871 C.ar    
  15 C15            6.0747     3.1986    -1.8292 C.ar    
  16 C16            4.7479     2.8543    -1.7077 C.ar    
  17 O17            2.6350     0.0990    -1.0883 O.2     
  18 S18            8.9585     3.3210    -2.9373 S.o2    
  19 O19            8.0844     4.3950    -3.2564 O.2     
  20 O20           10.3623     3.4803    -2.7856 O.2     
  21 N21            8.4051     2.6738    -1.5171 N.am    
  22 N22           10.3212     0.6531    -3.1591 N.ar    
  23 C23           10.9980    -0.4685    -3.1117 C.ar    
  24 C24           10.8473    -1.4574    -4.0817 C.ar    
  25 C25            9.9755    -1.2703    -5.1161 C.ar    
  26 C26            9.2500    -0.0648    -5.1636 C.ar    
  27 C27            8.3364     0.1986    -6.1964 C.ar    
  28 C28            7.6541     1.3771    -6.2070 C.ar    
  29 C29            7.8500     2.3255    -5.2055 C.ar    
  30 C30            8.7285     2.1033    -4.1900 C.ar    
  31 C31            9.4519     0.8991    -4.1445 C.ar    
  32 C32           -1.0936     6.8832     1.4222 C.ar    
  33 C33           -1.9357     6.8582     2.5246 C.ar    
  34 C34           -3.0950     8.7756     1.6803 C.ar    
  35 C35           -1.2536     7.8618     0.4524 C.ar    
  36 C36           -2.9342     7.8041     2.6512 C.ar    
  37 C37           -2.2539     8.8059     0.5836 C.ar    
  38 C38           -3.8495     7.7771     3.8481 C.3     
  39 H39            0.3980     1.7011     1.4012 H       
  40 H40           -1.0636     2.2754     0.5568 H       
  41 H41            0.4925     0.8043    -0.8472 H       
  42 H42            0.1131     2.3951    -1.5574 H       
  43 H43            3.5421     3.6689    -0.4690 H       
  44 H44            2.0805     4.2432    -1.3134 H       
  45 H45            1.9860     5.1400     0.9351 H       
  46 H46            2.3654     3.5492     1.6453 H       
  47 H47            5.1219    -0.1887    -0.2405 H       
  48 H48            7.4873     0.4307    -0.4722 H       
  49 H49            6.3481     4.1449    -2.2721 H       
  50 H50            3.9801     3.5296    -2.0554 H       
  51 H51            9.0156     2.5375    -0.7758 H       
  52 H52           11.6911    -0.6303    -2.2994 H       
  53 H53           11.4197    -2.3708    -4.0157 H       
  54 H54            9.8465    -2.0260    -5.8768 H       
  55 H55            8.1758    -0.5290    -6.9782 H       
  56 H56            6.9514     1.5788    -7.0020 H       
  57 H57            7.2973     3.2528    -5.2366 H       
  58 H58           -1.8107     6.0994     3.2830 H       
  59 H59           -3.8763     9.5143     1.7811 H       
  60 H60           -0.5965     7.8861    -0.4044 H       
  61 H61           -2.3816     9.5654    -0.1735 H       
  62 H62           -3.4230     8.3857     4.6455 H       
  63 H63           -4.8247     8.1758     3.5688 H       
  64 H64           -3.9628     6.7503     4.1958 H       
@<TRIPOS>BOND
   1    1    2 1
   2    1    6 1
   3    1    7 am
   4    2    3 1
   5    2   39 1
   6    2   40 1
   7    3    4 1
   8    3   41 1
   9    3   42 1
  10    4    5 1
  11    4   10 am
  12    5    6 1
  13    5   43 1
  14    5   44 1
  15    6   45 1
  16    6   46 1
  17    7    8 2
  18    7    9 1
  19    9   32 1
  20   10   11 1
  21   10   17 2
  22   11   12 ar
  23   11   16 ar
  24   12   13 ar
  25   12   47 1
  26   13   14 ar
  27   13   48 1
  28   14   15 ar
  29   14   21 1
  30   15   16 ar
  31   15   49 1
  32   16   50 1
  33   18   19 2
  34   18   20 2
  35   18   21 am
  36   18   30 1
  37   21   51 1
  38   22   23 ar
  39   22   31 ar
  40   23   24 ar
  41   23   52 1
  42   24   25 ar
  43   24   53 1
  44   25   26 ar
  45   25   54 1
  46   26   27 ar
  47   26   31 ar
  48   27   28 ar
  49   27   55 1
  50   28   29 ar
  51   28   56 1
  52   29   30 ar
  53   29   57 1
  54   30   31 ar
  55   32   33 ar
  56   32   35 ar
  57   33   36 ar
  58   33   58 1
  59   34   36 ar
  60   34   37 ar
  61   34   59 1
  62   35   37 ar
  63   35   60 1
  64   36   38 1
  65   37   61 1
  66   38   62 1
  67   38   63 1
  68   38   64 1

#	End of record

