#	Name: ASD01885034
#	Creating user name:	WinNT
#	Creation time:	15. 06. 2019 19:49

#	Modifying user name:	WinNT
#	Modification time:	15. 06. 2019 19:49

#	Program:	/corina/corina34_cracker 3.40 0067  02.08.2006

@<TRIPOS>MOLECULE
ASD01885034
  56   61    0    0    0
SMALL
NO_CHARGES


@<TRIPOS>ATOM
   1 C1            -0.0508     1.4210    -0.1274 C.2     
   2 C2            -0.0953     0.0541    -0.4629 C.2     
   3 C3            -1.2602    -0.6305    -0.3067 C.2     
   4 C4            -2.3980     0.0322     0.1847 C.2     
   5 C5            -2.3406     1.3428     0.5016 C.2     
   6 N6            -1.1773     2.0398     0.3567 N.pl3   
   7 C7            -0.8229     3.3337     0.5837 C.2     
   8 N8             0.4358     3.4611     0.2515 N.2     
   9 N9             0.9034     2.3368    -0.1648 N.2     
  10 C10           -1.7176     4.4217     1.1194 C.3     
  11 C11            1.1333    -0.6420    -0.9891 C.3     
  12 C12           -1.6312     4.4471     2.6468 C.3     
  13 N13           -1.0847     5.6556     3.2783 N.3     
  14 C14           -2.5324     5.4336     3.3922 C.3     
  15 C15           -1.3308    -2.0938    -0.6599 C.3     
  16 N16           -1.5557    -2.8815     0.5595 N.3     
  17 C17           -1.9943    -4.2443     0.2323 C.3     
  18 C18           -2.3665    -4.9841     1.5198 C.3     
  19 C19           -1.1570    -5.0155     2.4528 C.3     
  20 C20           -0.6732    -3.5930     2.7308 C.3     
  21 C21           -0.3546    -2.8980     1.4044 C.3     
  22 F22            1.0005    -0.8443    -2.3670 F       
  23 F23            2.2601     0.1490    -0.7404 F       
  24 F24            1.2800    -1.8771    -0.3485 F       
  25 C25           -1.5107    -5.7070     3.7439 C.ar    
  26 C26           -0.6637    -6.8144     3.8367 C.ar    
  27 C27            0.2110    -6.8473     2.6496 C.2     
  28 C28           -0.0472    -5.8330     1.8411 C.2     
  29 C29           -0.7624    -7.6560     4.9469 C.ar    
  30 C30           -1.6888    -7.3880     5.9333 C.ar    
  31 C31           -2.5220    -6.2888     5.8299 C.ar    
  32 C32           -2.4311    -5.4488     4.7324 C.ar    
  33 H33           -3.3236    -0.5103     0.3091 H       
  34 H34           -3.2212     1.8422     0.8778 H       
  35 H35           -1.3972     5.3844     0.7213 H       
  36 H36           -2.7466     4.2277     0.8169 H       
  37 H37           -1.4226     3.4892     3.1233 H       
  38 H38           -0.6154     5.4311     4.1428 H       
  39 H39           -3.1895     6.0674     2.7967 H       
  40 H40           -2.9221     5.1280     4.3632 H       
  41 H41           -2.1523    -2.2602    -1.3566 H       
  42 H42           -0.3933    -2.4013    -1.1233 H       
  43 H43           -2.8631    -4.1984    -0.4244 H       
  44 H44           -1.1862    -4.7750    -0.2710 H       
  45 H45           -3.1913    -4.4675     2.0108 H       
  46 H46           -2.6671    -6.0039     1.2795 H       
  47 H47           -1.4529    -3.0392     3.2536 H       
  48 H48            0.2247    -3.6282     3.3478 H       
  49 H49            0.4419    -3.4386     0.8931 H       
  50 H50           -0.0329    -1.8748     1.5984 H       
  51 H51            0.9633    -7.6000     2.4652 H       
  52 H52            0.4500    -5.6264     0.9049 H       
  53 H53           -0.1145    -8.5158     5.0329 H       
  54 H54           -1.7637    -8.0399     6.7911 H       
  55 H55           -3.2451    -6.0855     6.6059 H       
  56 H56           -3.0827    -4.5912     4.6532 H       
@<TRIPOS>BOND
   1    1    2 1
   2    1    9 2
   3    1    6 1
   4    2    3 2
   5    2   11 1
   6    3    4 1
   7    3   15 1
   8    4    5 2
   9    4   33 1
  10    5    6 1
  11    5   34 1
  12    6    7 1
  13    7    8 2
  14    7   10 1
  15    8    9 1
  16   10   12 1
  17   10   35 1
  18   10   36 1
  19   11   22 1
  20   11   23 1
  21   11   24 1
  22   12   13 1
  23   12   14 1
  24   12   37 1
  25   13   14 1
  26   13   38 1
  27   14   39 1
  28   14   40 1
  29   15   16 1
  30   15   41 1
  31   15   42 1
  32   16   17 1
  33   16   21 1
  34   17   18 1
  35   17   43 1
  36   17   44 1
  37   18   19 1
  38   18   45 1
  39   18   46 1
  40   19   20 1
  41   19   25 1
  42   19   28 1
  43   20   21 1
  44   20   47 1
  45   20   48 1
  46   21   49 1
  47   21   50 1
  48   25   32 ar
  49   25   26 ar
  50   26   27 1
  51   26   29 ar
  52   27   28 2
  53   27   51 1
  54   28   52 1
  55   29   30 ar
  56   29   53 1
  57   30   31 ar
  58   30   54 1
  59   31   32 ar
  60   31   55 1
  61   32   56 1

#	End of record

