#	Name: ASD01420022
#	Creating user name:	WinNT
#	Creation time:	15. 06. 2019 19:20

#	Modifying user name:	WinNT
#	Modification time:	15. 06. 2019 19:20

#	Program:	/corina/corina34_cracker 3.40 0067  02.08.2006

@<TRIPOS>MOLECULE
ASD01420022
  39   41    0    0    0
SMALL
NO_CHARGES


@<TRIPOS>ATOM
   1 C1            -0.0180     1.4763     0.0102 C.3     
   2 N2             0.0021    -0.0041     0.0020 N.3     
   3 C3             1.2737    -0.3385    -0.6784 C.3     
   4 C4             2.1992     0.8267    -0.4103 C.ar    
   5 C5             3.5724     0.9517    -0.5086 C.ar    
   6 C6             4.1829     2.1523    -0.1986 C.ar    
   7 C7             3.4152     3.2342     0.2116 C.ar    
   8 C8             2.0379     3.1064     0.3090 C.ar    
   9 C9             1.4320     1.9045    -0.0014 C.ar    
  10 C10           -1.1478    -0.5421    -0.7371 C.3     
  11 C11           -0.9679    -2.0250    -0.9360 C.ar    
  12 C12           -1.4531    -2.9118     0.0074 C.ar    
  13 C13           -1.2894    -4.2717    -0.1726 C.ar    
  14 C14           -0.6375    -4.7473    -1.3011 C.ar    
  15 C15           -0.1515    -3.8554    -2.2461 C.ar    
  16 C16           -0.3227    -2.4968    -2.0642 C.ar    
  17 O17           -0.4748    -6.0846    -1.4802 O.3     
  18 C18            0.2059    -6.5023    -2.6652 C.3     
  19 O19            4.0127     4.4161     0.5175 O.3     
  20 C20            3.1605     5.4856     0.9323 C.3     
  21 Cl21           5.9076     2.3074    -0.3215 Cl      
  22 H22           -0.5283     1.8508    -0.8772 H       
  23 H23           -0.5112     1.8412     0.9111 H       
  24 H24            1.6927    -1.2554    -0.2638 H       
  25 H25            1.1092    -0.4499    -1.7501 H       
  26 H26            4.1690     0.1099    -0.8276 H       
  27 H27            1.4389     3.9465     0.6282 H       
  28 H28           -2.0612    -0.3596    -0.1709 H       
  29 H29           -1.2178    -0.0512    -1.7077 H       
  30 H30           -1.9603    -2.5410     0.8859 H       
  31 H31           -1.6684    -4.9639     0.5647 H       
  32 H32            0.3564    -4.2232    -3.1254 H       
  33 H33            0.0512    -1.8023    -2.8020 H       
  34 H34           -0.3418    -6.1540    -3.5408 H       
  35 H35            1.2113    -6.0811    -2.6743 H       
  36 H36            0.2677    -7.5904    -2.6843 H       
  37 H37            2.4504     5.7135     0.1374 H       
  38 H38            2.6181     5.1905     1.8305 H       
  39 H39            3.7631     6.3685     1.1454 H       
@<TRIPOS>BOND
   1    1    2 1
   2    1    9 1
   3    1   22 1
   4    1   23 1
   5    2    3 1
   6    2   10 1
   7    3    4 1
   8    3   24 1
   9    3   25 1
  10    4    5 ar
  11    4    9 ar
  12    5    6 ar
  13    5   26 1
  14    6    7 ar
  15    6   21 1
  16    7    8 ar
  17    7   19 1
  18    8    9 ar
  19    8   27 1
  20   10   11 1
  21   10   28 1
  22   10   29 1
  23   11   12 ar
  24   11   16 ar
  25   12   13 ar
  26   12   30 1
  27   13   14 ar
  28   13   31 1
  29   14   15 ar
  30   14   17 1
  31   15   16 ar
  32   15   32 1
  33   16   33 1
  34   17   18 1
  35   18   34 1
  36   18   35 1
  37   18   36 1
  38   19   20 1
  39   20   37 1
  40   20   38 1
  41   20   39 1

#	End of record

