#	Name: ASD00170406
#	Creating user name:	WinNT
#	Creation time:	15. 06. 2019 18:32

#	Modifying user name:	WinNT
#	Modification time:	15. 06. 2019 18:32

#	Program:	/corina/corina34_cracker 3.40 0067  02.08.2006

@<TRIPOS>MOLECULE
ASD00170406
  56   58    0    0    0
SMALL
NO_CHARGES


@<TRIPOS>ATOM
   1 C1            -0.6752     0.9242    -1.2332 C.2     
   2 C2            -0.1271    -0.2426    -0.7468 C.2     
   3 C3            -1.1070    -1.1095    -0.1368 C.2     
   4 C4            -2.3458    -0.6027    -0.1688 C.2     
   5 S5            -2.3545     0.9695    -0.9474 S.3     
   6 C6            -0.7707    -2.4464     0.4719 C.3     
   7 C7            -3.5418    -1.2736     0.3817 C.ar    
   8 C8            -4.3947    -0.5869     1.2478 C.ar    
   9 C9            -5.5095    -1.2192     1.7582 C.ar    
  10 C10           -5.7832    -2.5310     1.4134 C.ar    
  11 C11           -4.9421    -3.2174     0.5555 C.ar    
  12 C12           -3.8271    -2.5951     0.0335 C.ar    
  13 N13            0.0389     1.9221    -1.8607 N.pl3   
  14 C14            1.2968    -0.5684    -0.8387 C.2     
  15 C15            1.8015    -1.3621    -1.9796 C.ar    
  16 O16            2.0659    -0.1858     0.0244 O.2     
  17 C17            3.1722    -1.5817    -2.1288 C.ar    
  18 C18            3.6369    -2.3226    -3.1949 C.ar    
  19 C19            2.7469    -2.8482    -4.1169 C.ar    
  20 C20            1.3859    -2.6337    -3.9742 C.ar    
  21 C21            0.9088    -1.8996    -2.9088 C.ar    
  22 Cl22           3.3395    -3.7790    -5.4571 Cl      
  23 N23            0.0016    -2.2427     1.7049 N.3     
  24 C24           -0.8743    -1.8446     2.8149 C.3     
  25 C25            0.7726    -3.4452     2.0478 C.3     
  26 C26            1.9791    -3.5610     1.1141 C.3     
  27 C27           -1.2059    -0.3558     2.6942 C.3     
  28 C28            2.7201    -4.8691     1.3980 C.3     
  29 C29           -1.9915     0.0933     3.9279 C.3     
  30 H30           -1.6913    -2.9819     0.7042 H       
  31 H31           -0.1798    -3.0292    -0.2348 H       
  32 H32           -4.1819     0.4369     1.5180 H       
  33 H33           -6.1698    -0.6893     2.4286 H       
  34 H34           -6.6571    -3.0214     1.8161 H       
  35 H35           -5.1614    -4.2412     0.2908 H       
  36 H36           -3.1715    -3.1319    -0.6363 H       
  37 H37            1.0053     1.8630    -1.9201 H       
  38 H38           -0.4248     2.6834    -2.2431 H       
  39 H39            3.8672    -1.1718    -1.4109 H       
  40 H40            4.6970    -2.4932    -3.3113 H       
  41 H41            0.6967    -3.0457    -4.6965 H       
  42 H42           -0.1526    -1.7333    -2.7984 H       
  43 H43           -1.7954    -2.4262     2.7776 H       
  44 H44           -0.3668    -2.0281     3.7620 H       
  45 H45            1.1172    -3.3739     3.0795 H       
  46 H46            0.1407    -4.3262     1.9359 H       
  47 H47            1.6391    -3.5534     0.0785 H       
  48 H48            2.6507    -2.7191     1.2821 H       
  49 H49           -0.2817     0.2177     2.6233 H       
  50 H50           -1.8066    -0.1888     1.8002 H       
  51 H51            3.5796    -4.9515     0.7328 H       
  52 H52            3.0601    -4.8766     2.4336 H       
  53 H53            2.0485    -5.7110     1.2300 H       
  54 H54           -2.9157    -0.4802     3.9987 H       
  55 H55           -1.3908    -0.0737     4.8219 H       
  56 H56           -2.2278     1.1539     3.8419 H       
@<TRIPOS>BOND
   1    1    2 2
   2    1   13 1
   3    1    5 1
   4    2    3 1
   5    2   14 1
   6    3    4 2
   7    3    6 1
   8    4    5 1
   9    4    7 1
  10    6   23 1
  11    6   30 1
  12    6   31 1
  13    7    8 ar
  14    7   12 ar
  15    8    9 ar
  16    8   32 1
  17    9   10 ar
  18    9   33 1
  19   10   11 ar
  20   10   34 1
  21   11   12 ar
  22   11   35 1
  23   12   36 1
  24   13   37 1
  25   13   38 1
  26   14   15 1
  27   14   16 2
  28   15   17 ar
  29   15   21 ar
  30   17   18 ar
  31   17   39 1
  32   18   19 ar
  33   18   40 1
  34   19   20 ar
  35   19   22 1
  36   20   21 ar
  37   20   41 1
  38   21   42 1
  39   23   24 1
  40   23   25 1
  41   24   27 1
  42   24   43 1
  43   24   44 1
  44   25   26 1
  45   25   45 1
  46   25   46 1
  47   26   28 1
  48   26   47 1
  49   26   48 1
  50   27   29 1
  51   27   49 1
  52   27   50 1
  53   28   51 1
  54   28   52 1
  55   28   53 1
  56   29   54 1
  57   29   55 1
  58   29   56 1

#	End of record

