#	Name: ASD00842279
#	Creating user name:	WinNT
#	Creation time:	15. 06. 2019 18:44

#	Modifying user name:	WinNT
#	Modification time:	15. 06. 2019 18:44

#	Program:	/corina/corina34_cracker 3.40 0067  02.08.2006

@<TRIPOS>MOLECULE
ASD00842279
  98  103    0    0    0
SMALL
NO_CHARGES


@<TRIPOS>ATOM
   1 F1             6.0981    -1.6530    -1.9704 F       
   2 C2             1.0069     1.5590    -0.3816 C.ar    
   3 C3             1.3137     0.2289    -0.6284 C.ar    
   4 C4             1.2445    -0.6991     0.4008 C.ar    
   5 C5             0.8705    -0.2966     1.6681 C.ar    
   6 C6             0.5648     1.0299     1.9115 C.ar    
   7 C7             0.6334     1.9565     0.8879 C.ar    
   8 C8             1.5766    -2.1450     0.1360 C.3     
   9 C9             1.3079    -2.9848     1.3666 C.2     
  10 C10            0.7730    -2.6685    -1.0561 C.3     
  11 C11           -0.6961    -2.4381    -0.8117 C.2     
  12 N12           -1.6067    -2.9088    -1.6867 N.am    
  13 O13           -1.0589    -1.8291     0.1724 O.2     
  14 C14           -3.0331    -2.5964    -1.5233 C.3     
  15 C15           -3.8275    -3.9062    -1.5199 C.3     
  16 C16           -3.4990    -4.7007    -2.7861 C.3     
  17 C17           -2.0070    -5.0408    -2.8043 C.3     
  18 C18           -1.1913    -3.7391    -2.8254 C.3     
  19 N19           -4.2842    -5.9422    -2.8023 N.3     
  20 C20           -4.0844    -6.6752    -4.0602 C.3     
  21 C21           -4.8543    -7.9969    -4.0052 C.3     
  22 N22           -6.2801    -7.7212    -3.7804 N.3     
  23 C23           -6.4799    -6.9881    -2.5224 C.3     
  24 C24           -5.7100    -5.6665    -2.5775 C.3     
  25 C25           -7.0653    -8.9627    -3.7966 C.3     
  26 O26            0.2366    -3.1377     1.9145 O.2     
  27 N27            2.4789    -3.5293     1.7376 N.am    
  28 C28            3.0591    -2.3119    -0.1068 C.ar    
  29 C29            3.5267    -3.1545     0.8940 C.ar    
  30 C30            3.9127    -1.8093    -1.0630 C.ar    
  31 C31            5.2571    -2.1435    -1.0338 C.ar    
  32 C32            5.7360    -2.9837    -0.0400 C.ar    
  33 C33            4.8789    -3.4877     0.9194 C.ar    
  34 F34            7.0464    -3.3108    -0.0097 F       
  35 C35            2.4057    -6.1786     2.4793 C.ar    
  36 C36            1.1615    -6.5641     2.0012 C.ar    
  37 C37            3.4481    -7.0856     2.5066 C.ar    
  38 C38            3.2544    -8.3778     2.0578 C.ar    
  39 C39            2.0116    -8.7682     1.5786 C.ar    
  40 C40            0.9644    -7.8605     1.5506 C.ar    
  41 O41            1.8215   -10.0396     1.1377 O.3     
  42 O42            0.1368    -5.6719     1.9750 O.3     
  43 C43           -1.1162    -6.1377     1.4699 C.3     
  44 C44            2.9446   -10.9212     1.1962 C.3     
  45 C45           -8.5194    -8.6512    -3.4367 C.3     
  46 C46           -7.0075    -9.5844    -5.1934 C.3     
  47 S47            2.6590    -4.5293     3.0452 S.o2    
  48 O48            4.0237    -4.4428     3.4316 O.2     
  49 O49            1.5820    -4.2372     3.9251 O.2     
  50 O50            1.6809    -0.1646    -1.8762 O.3     
  51 C51            2.1637     0.2249    -4.2120 C.3     
  52 C52            1.6216     0.8195    -2.9106 C.3     
  53 H53            1.0643     2.2840    -1.1800 H       
  54 H54            0.8165    -1.0186     2.4695 H       
  55 H55            0.2719     1.3424     2.9029 H       
  56 H56            0.3941     2.9919     1.0805 H       
  57 H57            1.0782    -2.1409    -1.9598 H       
  58 H58            0.9580    -3.7357    -1.1784 H       
  59 H59           -3.1868    -2.0734    -0.5795 H       
  60 H60           -3.3666    -1.9689    -2.3498 H       
  61 H61           -3.5576    -4.4931    -0.6419 H       
  62 H62           -4.8944    -3.6845    -1.4961 H       
  63 H63           -3.7461    -4.1035    -3.6638 H       
  64 H64           -1.7543    -5.6170    -1.9142 H       
  65 H65           -1.7782    -5.6266    -3.6946 H       
  66 H66           -1.3759    -3.2074    -3.7588 H       
  67 H67           -0.1299    -3.9716    -2.7386 H       
  68 H68           -4.4511    -6.0751    -4.8930 H       
  69 H69           -3.0224    -6.8784    -4.1980 H       
  70 H70           -4.7311    -8.5290    -4.9484 H       
  71 H71           -4.4690    -8.6084    -3.1892 H       
  72 H72           -7.5419    -6.7849    -2.3847 H       
  73 H73           -6.1132    -7.5882    -1.6897 H       
  74 H74           -5.8332    -5.1343    -1.6343 H       
  75 H75           -6.0953    -5.0550    -3.3934 H       
  76 H76           -6.6531    -9.6628    -3.0699 H       
  77 H77            3.5348    -1.1556    -1.8352 H       
  78 H78            5.2584    -4.1413     1.6910 H       
  79 H79            4.4158    -6.7837     2.8790 H       
  80 H80            4.0707    -9.0846     2.0795 H       
  81 H81           -0.0034    -8.1625     1.1785 H       
  82 H82           -0.9915    -6.4707     0.4396 H       
  83 H83           -1.4676    -6.9693     2.0806 H       
  84 H84           -1.8453    -5.3282     1.5043 H       
  85 H85            3.2784   -11.0164     2.2294 H       
  86 H86            2.6573   -11.9013     0.8154 H       
  87 H87            3.7548   -10.5185     0.5883 H       
  88 H88           -9.1019    -9.5724    -3.4488 H       
  89 H89           -8.5605    -8.2083    -2.4417 H       
  90 H90           -8.9315    -7.9511    -4.1634 H       
  91 H91           -5.9716    -9.8063    -5.4498 H       
  92 H92           -7.5901   -10.5056    -5.2054 H       
  93 H93           -7.4197    -8.8843    -5.9201 H       
  94 H94            1.5101    -0.5823    -4.5425 H       
  95 H95            2.2002     0.9996    -4.9779 H       
  96 H96            3.1669    -0.1661    -4.0426 H       
  97 H97            0.5874     1.1313    -3.0567 H       
  98 H98            2.2245     1.6820    -2.6265 H       
@<TRIPOS>BOND
   1    1   31 1
   2    2    3 ar
   3    2    7 ar
   4    2   53 1
   5    3    4 ar
   6    3   50 1
   7    4    5 ar
   8    4    8 1
   9    5    6 ar
  10    5   54 1
  11    6    7 ar
  12    6   55 1
  13    7   56 1
  14    8    9 1
  15    8   10 1
  16    8   28 1
  17    9   26 2
  18    9   27 am
  19   10   11 1
  20   10   57 1
  21   10   58 1
  22   11   12 am
  23   11   13 2
  24   12   14 1
  25   12   18 1
  26   14   15 1
  27   14   59 1
  28   14   60 1
  29   15   16 1
  30   15   61 1
  31   15   62 1
  32   16   17 1
  33   16   19 1
  34   16   63 1
  35   17   18 1
  36   17   64 1
  37   17   65 1
  38   18   66 1
  39   18   67 1
  40   19   20 1
  41   19   24 1
  42   20   21 1
  43   20   68 1
  44   20   69 1
  45   21   22 1
  46   21   70 1
  47   21   71 1
  48   22   23 1
  49   22   25 1
  50   23   24 1
  51   23   72 1
  52   23   73 1
  53   24   74 1
  54   24   75 1
  55   25   45 1
  56   25   46 1
  57   25   76 1
  58   27   47 am
  59   27   29 1
  60   28   29 ar
  61   28   30 ar
  62   29   33 ar
  63   30   31 ar
  64   30   77 1
  65   31   32 ar
  66   32   33 ar
  67   32   34 1
  68   33   78 1
  69   35   36 ar
  70   35   37 ar
  71   35   47 1
  72   36   42 1
  73   36   40 ar
  74   37   38 ar
  75   37   79 1
  76   38   39 ar
  77   38   80 1
  78   39   40 ar
  79   39   41 1
  80   40   81 1
  81   41   44 1
  82   42   43 1
  83   43   82 1
  84   43   83 1
  85   43   84 1
  86   44   85 1
  87   44   86 1
  88   44   87 1
  89   45   88 1
  90   45   89 1
  91   45   90 1
  92   46   91 1
  93   46   92 1
  94   46   93 1
  95   47   48 2
  96   47   49 2
  97   50   52 1
  98   51   52 1
  99   51   94 1
 100   51   95 1
 101   51   96 1
 102   52   97 1
 103   52   98 1

#	End of record

