#	Name: ASD01884723
#	Creating user name:	WinNT
#	Creation time:	15. 06. 2019 19:48

#	Modifying user name:	WinNT
#	Modification time:	15. 06. 2019 19:48

#	Program:	/corina/corina34_cracker 3.40 0067  02.08.2006

@<TRIPOS>MOLECULE
ASD01884723
  38   40    0    0    0
SMALL
NO_CHARGES


@<TRIPOS>ATOM
   1 C1            -0.0170     1.4020     0.0098 C.2     
   2 C2             0.0021    -0.0041     0.0020 C.2     
   3 C3             1.1597     2.0872     0.0022 C.2     
   4 C4             2.3744     1.3678    -0.0133 C.2     
   5 C5             2.3521     0.0032    -0.0204 C.2     
   6 N6             1.1734    -0.6669    -0.0127 N.am    
   7 C7             3.6695     2.0921    -0.0222 C.ar    
   8 C8             1.1653     3.5941     0.0097 C.3     
   9 H9            -0.9569     1.9339     0.0171 H       
  10 O10           -1.0480    -0.6260     0.0091 O.2     
  11 C11            1.1748    -2.1319    -0.0211 C.3     
  12 C12            1.1891    -2.6423     1.3968 C.ar    
  13 C13            4.5177     1.9944    -1.1234 C.ar    
  14 C14            5.7211     2.6702    -1.1264 C.ar    
  15 C15            6.0859     3.4431    -0.0387 C.ar    
  16 C16            5.2478     3.5436     1.0570 C.ar    
  17 C17            4.0392     2.8771     1.0681 C.ar    
  18 C18            0.0155    -2.6821     2.1300 C.ar    
  19 C19            0.0295    -3.1516     3.4325 C.ar    
  20 C20            1.2157    -3.5803     3.9994 C.ar    
  21 C21            2.3879    -3.5399     3.2650 C.ar    
  22 C22            2.3730    -3.0761     1.9632 C.ar    
  23 F23           -1.1427    -2.2625     1.5752 F       
  24 Cl24           1.2345    -4.1687     5.6326 Cl      
  25 H25            3.2811    -0.5475    -0.0322 H       
  26 H26            0.1391     3.9612     0.0212 H       
  27 H27            1.6888     3.9511     0.8967 H       
  28 H28            1.6722     3.9600    -0.8832 H       
  29 H29            0.2802    -2.4932    -0.5283 H       
  30 H30            2.0601    -2.4914    -0.5456 H       
  31 H31            4.2342     1.3907    -1.9728 H       
  32 H32            6.3794     2.5952    -1.9793 H       
  33 H33            7.0289     3.9696    -0.0449 H       
  34 H34            5.5375     4.1484     1.9036 H       
  35 H35            3.3856     2.9563     1.9241 H       
  36 H36           -0.8855    -3.1827     4.0055 H       
  37 H37            3.3142    -3.8748     3.7081 H       
  38 H38            3.2884    -3.0450     1.3909 H       
@<TRIPOS>BOND
   1    1    2 1
   2    1    3 2
   3    1    9 1
   4    2   10 2
   5    2    6 am
   6    3    4 1
   7    3    8 1
   8    4    5 2
   9    4    7 1
  10    5    6 1
  11    5   25 1
  12    6   11 1
  13    7   13 ar
  14    7   17 ar
  15    8   26 1
  16    8   27 1
  17    8   28 1
  18   11   12 1
  19   11   29 1
  20   11   30 1
  21   12   18 ar
  22   12   22 ar
  23   13   14 ar
  24   13   31 1
  25   14   15 ar
  26   14   32 1
  27   15   16 ar
  28   15   33 1
  29   16   17 ar
  30   16   34 1
  31   17   35 1
  32   18   19 ar
  33   18   23 1
  34   19   20 ar
  35   19   36 1
  36   20   21 ar
  37   20   24 1
  38   21   22 ar
  39   21   37 1
  40   22   38 1

#	End of record

