#	Name: ASD08070049
#	Creating user name:	WinNT
#	Creation time:	15. 06. 2019 21:14

#	Modifying user name:	WinNT
#	Modification time:	15. 06. 2019 21:14

#	Program:	/corina/corina34_cracker 3.40 0067  02.08.2006

@<TRIPOS>MOLECULE
ASD08070049
  42   43    0    0    0
SMALL
NO_CHARGES


@<TRIPOS>ATOM
   1 C1            -0.0168     1.3880     0.0097 C.ar    
   2 C2             0.0021    -0.0041     0.0020 C.ar    
   3 C3            -1.1656    -0.7257    -0.0054 C.ar    
   4 C4            -2.3955    -0.0600     0.0017 C.ar    
   5 C5            -2.4208     1.3369     0.0164 C.ar    
   6 C6            -1.2452     2.0501     0.0196 C.ar    
   7 O7             1.2446     1.8962     0.0004 O.3     
   8 C8             2.1682     0.8823     0.4313 C.3     
   9 C9             1.4584    -0.4278     0.0154 C.3     
  10 C10           -3.6566    -0.8269    -0.0067 C.2     
  11 N11           -4.8388    -0.1798     0.0002 N.am    
  12 O12           -3.6289    -2.0423    -0.0199 O.2     
  13 C13           -6.0905    -0.9410    -0.0082 C.3     
  14 C14           -6.4555    -1.3232     1.4031 C.2     
  15 C15           -7.2055    -0.0824    -0.6086 C.3     
  16 C16           -6.8946     0.2015    -2.0795 C.3     
  17 C17           -6.9231    -1.1088    -2.8690 C.3     
  18 O18           -5.7432    -0.9936     2.3217 O.2     
  19 O19           -7.5720    -2.0298     1.6397 O.3     
  20 C20           -7.8608    -2.3625     3.0232 C.3     
  21 C21           -7.9428     1.1613    -2.6463 C.3     
  22 H22           -1.1347    -1.8051    -0.0171 H       
  23 H23           -3.3667     1.8581     0.0244 H       
  24 H24           -1.2726     3.1297     0.0313 H       
  25 H25            3.1226     0.9850    -0.0850 H       
  26 H26            2.3065     0.9203     1.5118 H       
  27 H27            1.6287    -1.2137     0.7512 H       
  28 H28            1.7802    -0.7476    -0.9757 H       
  29 H29           -4.8610     0.7899     0.0107 H       
  30 H30           -5.9635    -1.8426    -0.6075 H       
  31 H31           -8.1540    -0.6144    -0.5339 H       
  32 H32           -7.2730     0.8589    -0.0632 H       
  33 H33           -5.9062     0.6536    -2.1613 H       
  34 H34           -7.9115    -1.5608    -2.7872 H       
  35 H35           -6.7016    -0.9065    -3.9169 H       
  36 H36           -6.1764    -1.7925    -2.4652 H       
  37 H37           -8.7882    -2.9329     3.0738 H       
  38 H38           -7.0448    -2.9587     3.4315 H       
  39 H39           -7.9662    -1.4455     3.6030 H       
  40 H40           -7.9225     2.0947    -2.0839 H       
  41 H41           -7.7213     1.3635    -3.6942 H       
  42 H42           -8.9312     0.7092    -2.5646 H       
@<TRIPOS>BOND
   1    1    2 ar
   2    1    7 1
   3    1    6 ar
   4    2    3 ar
   5    2    9 1
   6    3    4 ar
   7    3   22 1
   8    4    5 ar
   9    4   10 1
  10    5    6 ar
  11    5   23 1
  12    6   24 1
  13    7    8 1
  14    8    9 1
  15    8   25 1
  16    8   26 1
  17    9   27 1
  18    9   28 1
  19   10   11 am
  20   10   12 2
  21   11   13 1
  22   11   29 1
  23   13   14 1
  24   13   15 1
  25   13   30 1
  26   14   18 2
  27   14   19 1
  28   15   16 1
  29   15   31 1
  30   15   32 1
  31   16   17 1
  32   16   21 1
  33   16   33 1
  34   17   34 1
  35   17   35 1
  36   17   36 1
  37   19   20 1
  38   20   37 1
  39   20   38 1
  40   20   39 1
  41   21   40 1
  42   21   41 1
  43   21   42 1

#	End of record

