#	Name: ASD05792002
#	Creating user name:	WinNT
#	Creation time:	15. 06. 2019 21:03

#	Modifying user name:	WinNT
#	Modification time:	15. 06. 2019 21:03

#	Program:	/corina/corina34_cracker 3.40 0067  02.08.2006

@<TRIPOS>MOLECULE
ASD05792002
  78   81    0    0    0
SMALL
NO_CHARGES


@<TRIPOS>ATOM
   1 C1            -0.1478     3.0963     0.8423 C.3     
   2 C2            -0.5605     1.6258     0.8929 C.3     
   3 C3             0.0695     0.9505     2.1179 C.3     
   4 C4             1.5706     1.1634     2.0239 C.2     
   5 C5             2.0611     2.5833     1.9376 C.3     
   6 C6             1.3680     3.2373     0.7305 C.3     
   7 C7             2.3554     0.1295     2.0024 C.2     
   8 C8             3.8451     0.2230     1.8640 C.3     
   9 C9             4.3374     1.5548     2.4781 C.3     
  10 C10            3.5601     2.6737     1.7767 C.3     
  11 C11            5.7888     1.7191     2.1079 C.3     
  12 C12            6.3730     3.1123     2.4090 C.3     
  13 C13            5.5841     4.1605     1.6533 C.3     
  14 C14            4.1110     4.0556     2.0915 C.3     
  15 C15            6.8281     0.8088     2.7751 C.3     
  16 C16            8.1480     1.4321     2.2228 C.3     
  17 C17            7.8284     2.9219     1.9349 C.3     
  18 C18            6.4347     3.4656     3.8927 C.3     
  19 C19            4.0975     1.4954     3.9802 C.3     
  20 C20            1.6142     3.3366     3.1880 C.3     
  21 O21           -1.9837     1.5313     0.9820 O.3     
  22 C22            8.7551     3.8331     2.7374 C.3     
  23 C23           10.1910     3.6706     2.2346 C.3     
  24 C24           11.1192     4.5833     3.0384 C.3     
  25 C25           12.5551     4.4208     2.5356 C.3     
  26 C26           13.4833     5.3335     3.3394 C.3     
  27 C27           13.5112     4.8749     4.7988 C.3     
  28 C28           14.8962     5.2651     2.7563 C.3     
  29 H29            3.7517     2.5223     0.6892 H       
  30 H30            5.8697     1.5457     1.0090 H       
  31 C31            8.3155     5.2882     2.5635 C.3     
  32 O32            8.6917     3.4783     4.1202 O.3     
  33 H33            7.8975     3.1325     0.8724 H       
  34 H34           -0.6078     3.5546    -0.0437 H       
  35 H35           -0.5248     3.6172     1.7182 H       
  36 H36           -0.2196     1.1200    -0.0108 H       
  37 H37           -0.3251     1.3882     3.0295 H       
  38 H38           -0.1506    -0.1175     2.0960 H       
  39 H39            1.7140     2.7517    -0.1829 H       
  40 H40            1.6346     4.2945     0.6982 H       
  41 H41            1.9098    -0.8530     2.0879 H       
  42 H42            4.3175    -0.6028     2.3924 H       
  43 H43            4.1208     0.1983     0.8116 H       
  44 H44            5.9639     5.1559     1.8879 H       
  45 H45            5.6595     3.9831     0.5797 H       
  46 H46            3.5387     4.8032     1.5343 H       
  47 H47            4.0357     4.2769     3.1496 H       
  48 H48            6.7964     0.8503     3.8539 H       
  49 H49            6.7226    -0.2172     2.4183 H       
  50 H50            8.9342     1.3541     2.9710 H       
  51 H51            8.4398     0.9258     1.3053 H       
  52 H52            6.9214     2.6574     4.4387 H       
  53 H53            7.0031     4.3864     4.0236 H       
  54 H54            5.4237     3.6052     4.2753 H       
  55 H55            4.7652     0.7581     4.4259 H       
  56 H56            4.2928     2.4742     4.4183 H       
  57 H57            3.0628     1.2115     4.1720 H       
  58 H58            2.0330     2.8549     4.0716 H       
  59 H59            1.9646     4.3675     3.1358 H       
  60 H60            0.5260     3.3255     3.2495 H       
  61 H61           -2.4520     1.9328     0.2372 H       
  62 H62           10.5042     2.6339     2.3584 H       
  63 H63           10.2394     3.9412     1.1798 H       
  64 H64           10.8060     5.6200     2.9146 H       
  65 H65           11.0708     4.3127     4.0932 H       
  66 H66           12.8683     3.3841     2.6595 H       
  67 H67           12.6035     4.6914     1.4808 H       
  68 H68           13.1182     6.3593     3.2879 H       
  69 H69           13.8763     3.8491     4.8504 H       
  70 H70           14.1725     5.5251     5.3715 H       
  71 H71           12.5046     4.9236     5.2142 H       
  72 H72           14.8764     5.5919     1.7166 H       
  73 H73           15.5575     5.9154     3.3290 H       
  74 H74           15.2613     4.2394     2.8079 H       
  75 H75            7.2648     5.3854     2.8367 H       
  76 H76            8.9189     5.9293     3.2062 H       
  77 H77            8.4497     5.5865     1.5238 H       
  78 H78            8.9573     2.5670     4.3051 H       
@<TRIPOS>BOND
   1    1    2 1
   2    1    6 1
   3    1   34 1
   4    1   35 1
   5    2    3 1
   6    2   21 1
   7    2   36 1
   8    3    4 1
   9    3   37 1
  10    3   38 1
  11    4    5 1
  12    4    7 2
  13    5    6 1
  14    5   10 1
  15    5   20 1
  16    6   39 1
  17    6   40 1
  18    7    8 1
  19    7   41 1
  20    8    9 1
  21    8   42 1
  22    8   43 1
  23    9   10 1
  24    9   19 1
  25    9   11 1
  26   10   29 1
  27   10   14 1
  28   11   15 1
  29   11   30 1
  30   11   12 1
  31   12   13 1
  32   12   18 1
  33   12   17 1
  34   13   14 1
  35   13   44 1
  36   13   45 1
  37   14   46 1
  38   14   47 1
  39   15   16 1
  40   15   48 1
  41   15   49 1
  42   16   17 1
  43   16   50 1
  44   16   51 1
  45   17   22 1
  46   17   33 1
  47   18   52 1
  48   18   53 1
  49   18   54 1
  50   19   55 1
  51   19   56 1
  52   19   57 1
  53   20   58 1
  54   20   59 1
  55   20   60 1
  56   21   61 1
  57   22   23 1
  58   22   31 1
  59   22   32 1
  60   23   24 1
  61   23   62 1
  62   23   63 1
  63   24   25 1
  64   24   64 1
  65   24   65 1
  66   25   26 1
  67   25   66 1
  68   25   67 1
  69   26   27 1
  70   26   28 1
  71   26   68 1
  72   27   69 1
  73   27   70 1
  74   27   71 1
  75   28   72 1
  76   28   73 1
  77   28   74 1
  78   31   75 1
  79   31   76 1
  80   31   77 1
  81   32   78 1

#	End of record

