#	Name: ASD05730061
#	Creating user name:	WinNT
#	Creation time:	15. 06. 2019 21:02

#	Modifying user name:	WinNT
#	Modification time:	15. 06. 2019 21:02

#	Program:	/corina/corina34_cracker 3.40 0067  02.08.2006

@<TRIPOS>MOLECULE
ASD05730061
  90   95    0    0    0
SMALL
NO_CHARGES


@<TRIPOS>ATOM
   1 N1             0.1429     1.3870     0.8822 N.pl3   
   2 C2             0.1381    -0.0067     0.7566 C.ar    
   3 C3            -0.9353    -0.6455     0.1496 C.ar    
   4 C4            -0.9397    -2.0206     0.0252 C.ar    
   5 C5             0.1291    -2.7649     0.5072 C.ar    
   6 C6             1.2022    -2.1262     1.1146 C.ar    
   7 C7             1.2094    -0.7506     1.2338 C.ar    
   8 N8             0.1245    -4.1599     0.3810 N.pl3   
   9 C9             1.3076    -4.8371     0.1593 C.ar    
  10 N10            1.2936    -6.1614     0.1559 N.ar    
  11 C11            2.4112    -6.8475    -0.0543 C.ar    
  12 C12            3.6117    -6.1373    -0.2734 C.ar    
  13 C13            3.5739    -4.7348    -0.2601 C.ar    
  14 N14            2.4170    -4.1361    -0.0482 N.ar    
  15 N15            2.4060    -8.2195    -0.0590 N.am    
  16 C16            3.5425    -8.9101    -0.2723 C.2     
  17 C17            4.8048    -8.2044    -0.5025 C.2     
  18 C18            4.8195    -6.8352    -0.5008 C.2     
  19 C19            1.1516    -8.9405     0.1706 C.3     
  20 O20            3.5203   -10.1281    -0.2733 O.2     
  21 C21            6.0548    -8.9651    -0.7355 C.ar    
  22 C22            0.8358    -9.8145    -1.0449 C.3     
  23 C23            7.1011    -8.8909     0.1834 C.ar    
  24 C24            1.2752     2.0609     1.5225 C.3     
  25 C25            2.3796     2.2973     0.4898 C.3     
  26 N26            3.5062     2.9916     1.1263 N.3     
  27 C27            3.0997     4.3077     1.6353 C.3     
  28 C28            2.0168     4.1313     2.7022 C.3     
  29 C29            0.8154     3.4074     2.0882 C.3     
  30 C30            6.1873    -9.7627    -1.8718 C.ar    
  31 C31            7.3538   -10.4687    -2.0834 C.ar    
  32 C32            8.3906   -10.3866    -1.1711 C.ar    
  33 C33            8.2627    -9.6016    -0.0391 C.ar    
  34 S34            9.8768   -11.2916    -1.4480 S.o2    
  35 C35           10.9258   -10.1588    -2.4003 C.3     
  36 C36           12.2623   -10.8376    -2.7070 C.3     
  37 O37           13.0887    -9.9452    -3.4572 O.3     
  38 C38           14.3674   -10.4847    -3.7976 C.3     
  39 O39           10.4123   -11.4925    -0.1472 O.2     
  40 O40            9.4727   -12.3916    -2.2518 O.2     
  41 C41            1.2912    -9.8243     1.4117 C.3     
  42 C42            2.4251   -10.8289     1.1975 C.3     
  43 C43            2.1094   -11.7029    -0.0180 C.3     
  44 C44            1.9698   -10.8191    -1.2591 C.3     
  45 S45            3.4537   -12.8940    -0.2720 S.o2    
  46 C46            2.9536   -13.6994    -1.8185 C.3     
  47 O47            4.6574   -12.1753    -0.5045 O.2     
  48 O48            3.4105   -13.8552     0.7736 O.2     
  49 H49           -0.6016     1.9072     0.5417 H       
  50 H50           -1.7666    -0.0668    -0.2249 H       
  51 H51           -1.7746    -2.5175    -0.4465 H       
  52 H52            2.0332    -2.7050     1.4897 H       
  53 H53            2.0439    -0.2539     1.7062 H       
  54 H54           -0.7096    -4.6503     0.4494 H       
  55 H55            4.4719    -4.1575    -0.4235 H       
  56 H56            5.7405    -6.2967    -0.6686 H       
  57 H57            0.3438    -8.2248     0.3232 H       
  58 H58           -0.0975   -10.3510    -0.8740 H       
  59 H59            0.7364    -9.1848    -1.9291 H       
  60 H60            7.0026    -8.2781     1.0673 H       
  61 H61            1.6597     1.4383     2.3304 H       
  62 H62            2.7192     1.3396     0.0955 H       
  63 H63            1.9903     2.9079    -0.3249 H       
  64 H64            3.9096     2.4289     1.8603 H       
  65 H65            3.9623     4.8101     2.0730 H       
  66 H66            2.7070     4.9088     0.8152 H       
  67 H67            2.4132     3.5419     3.5290 H       
  68 H68            1.7042     5.1091     3.0686 H       
  69 H69            0.3948     4.0147     1.2867 H       
  70 H70            0.0592     3.2411     2.8555 H       
  71 H71            5.3785    -9.8278    -2.5845 H       
  72 H72            7.4576   -11.0870    -2.9629 H       
  73 H73            9.0756    -9.5411     0.6693 H       
  74 H74           10.4269    -9.9001    -3.3343 H       
  75 H75           11.1030    -9.2532    -1.8200 H       
  76 H76           12.7612   -11.0963    -1.7730 H       
  77 H77           12.0852   -11.7431    -3.2873 H       
  78 H78           14.9336    -9.7466    -4.3656 H       
  79 H79           14.9100   -10.7361    -2.8862 H       
  80 H80           14.2339   -11.3829    -4.4004 H       
  81 H81            1.5162    -9.2017     2.2776 H       
  82 H82            0.3579   -10.3608     1.5826 H       
  83 H83            3.3585   -10.2924     1.0266 H       
  84 H84            2.5246   -11.4586     2.0817 H       
  85 H85            1.1761   -12.2394     0.1528 H       
  86 H86            1.7448   -11.4417    -2.1251 H       
  87 H87            2.9031   -10.2826    -1.4300 H       
  88 H88            2.8869   -12.9542    -2.6112 H       
  89 H89            3.6916   -14.4540    -2.0904 H       
  90 H90            1.9816   -14.1739    -1.6832 H       
@<TRIPOS>BOND
   1    1    2 1
   2    1   24 1
   3    1   49 1
   4    2    3 ar
   5    2    7 ar
   6    3    4 ar
   7    3   50 1
   8    4    5 ar
   9    4   51 1
  10    5    6 ar
  11    5    8 1
  12    6    7 ar
  13    6   52 1
  14    7   53 1
  15    8    9 1
  16    8   54 1
  17    9   10 ar
  18    9   14 ar
  19   10   11 ar
  20   11   12 ar
  21   11   15 1
  22   12   13 ar
  23   12   18 1
  24   13   14 ar
  25   13   55 1
  26   15   16 am
  27   15   19 1
  28   16   17 1
  29   16   20 2
  30   17   18 2
  31   17   21 1
  32   18   56 1
  33   19   22 1
  34   19   41 1
  35   19   57 1
  36   21   23 ar
  37   21   30 ar
  38   22   44 1
  39   22   58 1
  40   22   59 1
  41   23   33 ar
  42   23   60 1
  43   24   25 1
  44   24   29 1
  45   24   61 1
  46   25   26 1
  47   25   62 1
  48   25   63 1
  49   26   27 1
  50   26   64 1
  51   27   28 1
  52   27   65 1
  53   27   66 1
  54   28   29 1
  55   28   67 1
  56   28   68 1
  57   29   69 1
  58   29   70 1
  59   30   31 ar
  60   30   71 1
  61   31   32 ar
  62   31   72 1
  63   32   33 ar
  64   32   34 1
  65   33   73 1
  66   34   35 1
  67   34   39 2
  68   34   40 2
  69   35   36 1
  70   35   74 1
  71   35   75 1
  72   36   37 1
  73   36   76 1
  74   36   77 1
  75   37   38 1
  76   38   78 1
  77   38   79 1
  78   38   80 1
  79   41   42 1
  80   41   81 1
  81   41   82 1
  82   42   43 1
  83   42   83 1
  84   42   84 1
  85   43   44 1
  86   43   45 1
  87   43   85 1
  88   44   86 1
  89   44   87 1
  90   45   46 1
  91   45   47 2
  92   45   48 2
  93   46   88 1
  94   46   89 1
  95   46   90 1

#	End of record

