#	Name: ASD04880068
#	Creating user name:	WinNT
#	Creation time:	15. 06. 2019 20:52

#	Modifying user name:	WinNT
#	Modification time:	15. 06. 2019 20:52

#	Program:	/corina/corina34_cracker 3.40 0067  02.08.2006

@<TRIPOS>MOLECULE
ASD04880068
  34   36    0    0    0
SMALL
NO_CHARGES


@<TRIPOS>ATOM
   1 C1            -0.0144     1.2118     0.0087 C.2     
   2 O2             0.0579    -0.0018    -0.0140 O.2     
   3 C3             1.2186     2.0262    -0.0194 C.ar    
   4 C4             2.4678     1.4100     0.0723 C.ar    
   5 C5             3.6162     2.1776     0.0455 C.ar    
   6 C6             3.5284     3.5558    -0.0721 C.ar    
   7 C7             2.2929     4.1704    -0.1633 C.ar    
   8 C8             1.1389     3.4143    -0.1434 C.ar    
   9 F9             4.8266     1.5839     0.1345 F       
  10 N10           -1.2191     1.8143     0.0539 N.am    
  11 N11           -1.4358     3.1835     0.1955 N.2     
  12 C12           -2.6794     3.5207     0.2115 C.2     
  13 C13           -3.5395     2.2856     0.0670 C.3     
  14 C14           -2.5204     1.1344    -0.0448 C.3     
  15 C15           -4.5581     5.1513     0.3554 C.ar    
  16 C16           -3.1854     4.8982     0.3498 C.ar    
  17 C17           -2.2945     5.9744     0.4784 C.ar    
  18 C18           -2.8159     7.2456     0.6057 C.ar    
  19 C19           -4.1978     7.4181     0.6025 C.ar    
  20 N20           -5.0133     6.3810     0.4793 N.ar    
  21 N21           -4.7285     8.6948     0.7307 N.pl3   
  22 H22            2.5363     0.3361     0.1644 H       
  23 H23            4.4286     4.1522    -0.0924 H       
  24 H24            2.2312     5.2448    -0.2544 H       
  25 H25            0.1752     3.8960    -0.2192 H       
  26 H26           -4.1731     2.1562     0.9444 H       
  27 H27           -4.1448     2.3450    -0.8376 H       
  28 H28           -2.6162     0.6268    -1.0046 H       
  29 H29           -2.6485     0.4301     0.7772 H       
  30 H30           -5.2536     4.3314     0.2526 H       
  31 H31           -1.2268     5.8118     0.4781 H       
  32 H32           -2.1595     8.0973     0.7071 H       
  33 H33           -4.1377     9.4587     0.8216 H       
  34 H34           -5.6900     8.8227     0.7293 H       
@<TRIPOS>BOND
   1    1    2 2
   2    1    3 1
   3    1   10 am
   4    3    4 ar
   5    3    8 ar
   6    4    5 ar
   7    4   22 1
   8    5    6 ar
   9    5    9 1
  10    6    7 ar
  11    6   23 1
  12    7    8 ar
  13    7   24 1
  14    8   25 1
  15   10   11 1
  16   10   14 1
  17   11   12 2
  18   12   13 1
  19   12   16 1
  20   13   14 1
  21   13   26 1
  22   13   27 1
  23   14   28 1
  24   14   29 1
  25   15   16 ar
  26   15   20 ar
  27   15   30 1
  28   16   17 ar
  29   17   18 ar
  30   17   31 1
  31   18   19 ar
  32   18   32 1
  33   19   20 ar
  34   19   21 1
  35   21   33 1
  36   21   34 1

#	End of record

