#	Name: ASD01901573
#	Creating user name:	WinNT
#	Creation time:	15. 06. 2019 19:54

#	Modifying user name:	WinNT
#	Modification time:	15. 06. 2019 19:54

#	Program:	/corina/corina34_cracker 3.40 0067  02.08.2006

@<TRIPOS>MOLECULE
ASD01901573
  62   65    0    0    0
SMALL
NO_CHARGES


@<TRIPOS>ATOM
   1 C1            -0.0173     1.4248     0.0099 C.3     
   2 O2             0.0021    -0.0041     0.0020 O.3     
   3 C3             0.6734    -0.5824     1.1231 C.3     
   4 C4             0.6327    -2.1077     1.0107 C.3     
   5 C5             1.3514    -2.7270     2.2110 C.3     
   6 N6             1.3125    -4.1875     2.1034 N.pl3   
   7 C7             2.1826    -4.9564     1.4158 C.2     
   8 C8             1.8015    -6.2460     1.5662 C.2     
   9 C9             0.6594    -6.2660     2.3735 C.2     
  10 N10            0.3689    -5.0330     2.7010 N.2     
  11 C11           -0.1010    -7.4957     2.7983 C.3     
  12 C12           -0.6143    -8.2312     1.5588 C.3     
  13 C13           -1.2865    -7.0848     3.6746 C.3     
  14 C14           -0.7778    -6.6613     5.0296 C.2     
  15 O15           -1.3368    -5.7733     5.6370 O.2     
  16 N16            0.2967    -7.2697     5.5645 N.am    
  17 C17            0.9835    -8.1943     4.8730 C.2     
  18 O18            1.8038    -8.8794     5.4517 O.2     
  19 N19            0.7856    -8.3794     3.5577 N.am    
  20 C20            1.4661    -9.4815     2.8731 C.3     
  21 C21            0.7054    -6.9338     6.8633 C.ar    
  22 C22            1.6154    -5.8998     7.0589 C.ar    
  23 F23            2.1034    -5.2208     5.9977 F       
  24 C24            2.0198    -5.5665     8.3355 C.ar    
  25 C25            1.5140    -6.2693     9.4329 C.ar    
  26 C26            0.5998    -7.3077     9.2326 C.ar    
  27 C27            0.1956    -7.6317     7.9535 C.ar    
  28 F28           -0.6921    -8.6315     7.7594 F       
  29 C29            1.9317    -5.9267    10.7590 C.1     
  30 C30            2.2741    -5.6458    11.8463 C.1     
  31 C31            2.6918    -5.3031    13.1725 C.ar    
  32 C32            3.6015    -4.2618    13.3750 C.ar    
  33 C33            3.9988    -3.9372    14.6552 C.ar    
  34 C34            3.4990    -4.6397    15.7376 C.ar    
  35 C35            2.5978    -5.6721    15.5447 C.ar    
  36 C36            2.1872    -6.0046    14.2708 C.ar    
  37 H37            1.0053     1.8021     0.0021 H       
  38 H38           -0.5445     1.7859    -0.8732 H       
  39 H39           -0.5275     1.7763     0.9067 H       
  40 H40            1.7103    -0.2468     1.1385 H       
  41 H41            0.1775    -0.2725     2.0430 H       
  42 H42           -0.4042    -2.4434     0.9953 H       
  43 H43            1.1285    -2.4176     0.0908 H       
  44 H44            2.3884    -2.3913     2.2264 H       
  45 H45            0.8556    -2.4171     3.1309 H       
  46 H46            3.0309    -4.6053     0.8470 H       
  47 H47            2.2922    -7.1076     1.1382 H       
  48 H48            0.2298    -8.5236     0.9342 H       
  49 H49           -1.1644    -9.1207     1.8659 H       
  50 H50           -1.2741    -7.5733     0.9931 H       
  51 H51           -1.8138    -6.2532     3.2073 H       
  52 H52           -1.9654    -7.9299     3.7884 H       
  53 H53            2.4288    -9.1360     2.4965 H       
  54 H54            1.6231   -10.3023     3.5729 H       
  55 H55            0.8527    -9.8261     2.0406 H       
  56 H56            2.7265    -4.7639     8.4865 H       
  57 H57            0.2073    -7.8530    10.0781 H       
  58 H58            3.9927    -3.7129    12.5312 H       
  59 H59            4.7021    -3.1330    14.8133 H       
  60 H60            3.8140    -4.3813    16.7378 H       
  61 H61            2.2119    -6.2160    16.3942 H       
  62 H62            1.4804    -6.8075    14.1221 H       
@<TRIPOS>BOND
   1    1    2 1
   2    1   37 1
   3    1   38 1
   4    1   39 1
   5    2    3 1
   6    3    4 1
   7    3   40 1
   8    3   41 1
   9    4    5 1
  10    4   42 1
  11    4   43 1
  12    5    6 1
  13    5   44 1
  14    5   45 1
  15    6   10 1
  16    6    7 1
  17    7    8 2
  18    7   46 1
  19    8    9 1
  20    8   47 1
  21    9   10 2
  22    9   11 1
  23   11   19 1
  24   11   12 1
  25   11   13 1
  26   12   48 1
  27   12   49 1
  28   12   50 1
  29   13   14 1
  30   13   51 1
  31   13   52 1
  32   14   15 2
  33   14   16 am
  34   16   17 am
  35   16   21 1
  36   17   18 2
  37   17   19 am
  38   19   20 1
  39   20   53 1
  40   20   54 1
  41   20   55 1
  42   21   27 ar
  43   21   22 ar
  44   22   23 1
  45   22   24 ar
  46   24   25 ar
  47   24   56 1
  48   25   26 ar
  49   25   29 1
  50   26   27 ar
  51   26   57 1
  52   27   28 1
  53   29   30 3
  54   30   31 1
  55   31   36 ar
  56   31   32 ar
  57   32   33 ar
  58   32   58 1
  59   33   34 ar
  60   33   59 1
  61   34   35 ar
  62   34   60 1
  63   35   36 ar
  64   35   61 1
  65   36   62 1

#	End of record

