#	Name: ASD03240192
#	Creating user name:	WinNT
#	Creation time:	15. 06. 2019 20:34

#	Modifying user name:	WinNT
#	Modification time:	15. 06. 2019 20:34

#	Program:	/corina/corina34_cracker 3.40 0067  02.08.2006

@<TRIPOS>MOLECULE
ASD03240192
  46   50    0    0    0
SMALL
NO_CHARGES


@<TRIPOS>ATOM
   1 C1            -0.0167     1.3786     0.0096 C.ar    
   2 C2             0.0021    -0.0041     0.0020 C.ar    
   3 C3             1.2066    -0.6797    -0.0132 C.ar    
   4 C4             2.3995     0.0309    -0.0208 C.ar    
   5 C5             2.3774     1.4193    -0.0131 C.ar    
   6 C6             1.1696     2.0891     0.0021 C.ar    
   7 N7             3.6228    -0.6515    -0.0357 N.pl3   
   8 C8             3.9630    -1.6684     0.8164 C.2     
   9 C9             5.2144    -2.1041     0.5288 C.2     
  10 C10            5.6929    -1.2901    -0.5964 C.ar    
  11 C11            4.6497    -0.4014    -0.9093 C.ar    
  12 C12            6.8732    -1.2354    -1.3491 C.ar    
  13 N13            6.9574    -0.3379    -2.3275 N.ar    
  14 C14            5.9553     0.4826    -2.5855 C.ar    
  15 N15            4.8274     0.4614    -1.9085 N.ar    
  16 N16            7.9252    -2.0931    -1.0814 N.pl3   
  17 C17            9.1513    -2.0201    -1.8800 C.3     
  18 C18           10.1327    -3.0531    -1.3891 C.2     
  19 C19           10.2203    -4.3056    -1.8393 C.2     
  20 C20            5.9548    -3.1890     1.2157 C.ar    
  21 C21            6.0508    -3.1990     2.6066 C.ar    
  22 C22            6.5531    -4.2066     0.4737 C.ar    
  23 C23            7.2406    -5.2143     1.1188 C.ar    
  24 C24            7.3370    -5.2161     2.4988 C.ar    
  25 C25            6.7410    -4.2119     3.2406 C.ar    
  26 C26           11.2013    -5.0746    -1.2372 C.2     
  27 C27           11.9103    -4.4465    -0.2981 C.2     
  28 S28           11.3429    -2.7892    -0.1404 S.3     
  29 H29           -0.9598     1.9047     0.0170 H       
  30 H30           -0.9261    -0.5562     0.0083 H       
  31 H31            1.2206    -1.7596    -0.0187 H       
  32 H32            3.3036     1.9747    -0.0187 H       
  33 H33            1.1517     3.1689     0.0081 H       
  34 H34            3.3310    -2.0628     1.5983 H       
  35 H35            6.0641     1.1966    -3.3884 H       
  36 H36            7.8511    -2.7428    -0.3649 H       
  37 H37            8.9151    -2.2118    -2.9267 H       
  38 H38            9.5898    -1.0270    -1.7825 H       
  39 H39            9.5745    -4.6908    -2.6146 H       
  40 H40            5.5862    -2.4154     3.1867 H       
  41 H41            6.4782    -4.2065    -0.6037 H       
  42 H42            7.7042    -6.0033     0.5452 H       
  43 H43            7.8758    -6.0070     2.9994 H       
  44 H44            6.8195    -4.2185     4.3177 H       
  45 H45           11.3789    -6.1051    -1.5072 H       
  46 H46           12.7126    -4.8871     0.2752 H       
@<TRIPOS>BOND
   1    1    2 ar
   2    1    6 ar
   3    1   29 1
   4    2    3 ar
   5    2   30 1
   6    3    4 ar
   7    3   31 1
   8    4    5 ar
   9    4    7 1
  10    5    6 ar
  11    5   32 1
  12    6   33 1
  13    7    8 1
  14    7   11 1
  15    8    9 2
  16    8   34 1
  17    9   10 1
  18    9   20 1
  19   10   11 ar
  20   10   12 ar
  21   11   15 ar
  22   12   13 ar
  23   12   16 1
  24   13   14 ar
  25   14   15 ar
  26   14   35 1
  27   16   17 1
  28   16   36 1
  29   17   18 1
  30   17   37 1
  31   17   38 1
  32   18   19 2
  33   18   28 1
  34   19   26 1
  35   19   39 1
  36   20   21 ar
  37   20   22 ar
  38   21   25 ar
  39   21   40 1
  40   22   23 ar
  41   22   41 1
  42   23   24 ar
  43   23   42 1
  44   24   25 ar
  45   24   43 1
  46   25   44 1
  47   26   27 2
  48   26   45 1
  49   27   28 1
  50   27   46 1

#	End of record

