#	Name: ASD01850088
#	Creating user name:	WinNT
#	Creation time:	15. 06. 2019 19:38

#	Modifying user name:	WinNT
#	Modification time:	15. 06. 2019 19:38

#	Program:	/corina/corina34_cracker 3.40 0067  02.08.2006

@<TRIPOS>MOLECULE
ASD01850088
  43   46    0    0    0
SMALL
NO_CHARGES


@<TRIPOS>ATOM
   1 F1             2.3765     3.6369     4.6036 F       
   2 C2             1.7324     4.0148     3.4777 C.ar    
   3 C3             0.4759     4.5879     3.5681 C.ar    
   4 C4            -0.1787     4.9736     2.4076 C.ar    
   5 C5             0.4538     4.7694     1.1930 C.ar    
   6 C6             1.7151     4.1888     1.1759 C.ar    
   7 O7             2.3443     3.9845    -0.0086 O.3     
   8 C8             3.5285     3.3180     0.0046 C.ar    
   9 C9             3.5486     1.9397     0.1624 C.ar    
  10 C10            4.7537     1.2646     0.1756 C.ar    
  11 C11            5.9393     1.9613     0.0317 C.ar    
  12 C12            7.2526     1.2223     0.0465 C.3     
  13 N13            7.6047     0.8249    -1.3189 N.am    
  14 C14            7.2404    -0.3374    -1.8873 C.2     
  15 O15            6.5805    -1.2134    -1.3687 O.2     
  16 C16            7.7980    -0.3539    -3.2796 C.2     
  17 O17            7.6864    -1.2308    -4.1110 O.2     
  18 C18            8.5112     0.9299    -3.4165 C.ar    
  19 C19            9.2328     1.5105    -4.4590 C.ar    
  20 C20            9.8028     2.7607    -4.2848 C.ar    
  21 O21           10.5078     3.3342    -5.2965 O.3     
  22 C22           11.0678     4.6249    -5.0468 C.3     
  23 F23           11.9546     4.5475    -3.9675 F       
  24 F24           11.7545     5.0633    -6.1840 F       
  25 F25           10.0427     5.5275    -4.7442 F       
  26 C26            9.6536     3.4284    -3.0765 C.ar    
  27 C27            8.9393     2.8574    -2.0397 C.ar    
  28 C28            8.3558     1.6076    -2.1966 C.ar    
  29 C29            5.9221     3.3349    -0.1260 C.ar    
  30 C30            4.7194     4.0141    -0.1452 C.ar    
  31 N31            2.3117     3.8378     2.3035 N.ar    
  32 H32            0.0100     4.7330     4.5317 H       
  33 H33           -1.1599     5.4228     2.4505 H       
  34 H34           -0.0279     5.0578     0.2705 H       
  35 H35            2.6228     1.3951     0.2751 H       
  36 H36            4.7698     0.1918     0.2986 H       
  37 H37            8.0305     1.8717     0.4479 H       
  38 H38            7.1626     0.3339     0.6716 H       
  39 H39            9.3470     0.9879    -5.3972 H       
  40 H40           10.1002     4.4029    -2.9452 H       
  41 H41            8.8314     3.3877    -1.1051 H       
  42 H42            6.8496     3.8767    -0.2382 H       
  43 H43            4.7063     5.0865    -0.2726 H       
@<TRIPOS>BOND
   1    1    2 1
   2    2   31 ar
   3    2    3 ar
   4    3    4 ar
   5    3   32 1
   6    4    5 ar
   7    4   33 1
   8    5    6 ar
   9    5   34 1
  10    6    7 1
  11    6   31 ar
  12    7    8 1
  13    8   30 ar
  14    8    9 ar
  15    9   10 ar
  16    9   35 1
  17   10   11 ar
  18   10   36 1
  19   11   12 1
  20   11   29 ar
  21   12   13 1
  22   12   37 1
  23   12   38 1
  24   13   28 1
  25   13   14 am
  26   14   15 2
  27   14   16 1
  28   16   17 2
  29   16   18 1
  30   18   28 ar
  31   18   19 ar
  32   19   20 ar
  33   19   39 1
  34   20   21 1
  35   20   26 ar
  36   21   22 1
  37   22   23 1
  38   22   24 1
  39   22   25 1
  40   26   27 ar
  41   26   40 1
  42   27   28 ar
  43   27   41 1
  44   29   30 ar
  45   29   42 1
  46   30   43 1

#	End of record

