#	Name: ASD01884307
#	Creating user name:	WinNT
#	Creation time:	15. 06. 2019 19:47

#	Modifying user name:	WinNT
#	Modification time:	15. 06. 2019 19:47

#	Program:	/corina/corina34_cracker 3.40 0067  02.08.2006

@<TRIPOS>MOLECULE
ASD01884307
  48   50    0    0    0
SMALL
NO_CHARGES


@<TRIPOS>ATOM
   1 C1            -2.5540    -3.0946    -3.2268 C.ar    
   2 N2            -1.8296    -3.1597    -2.1270 N.ar    
   3 C3            -2.1151    -2.4348    -1.0635 C.ar    
   4 C4            -3.1996    -1.5696    -1.0669 C.ar    
   5 C5            -3.9857    -1.4760    -2.2114 C.ar    
   6 C6            -3.6470    -2.2517    -3.3080 C.ar    
   7 C7            -5.8258    -0.6308     0.4404 C.ar    
   8 C8            -4.6227    -0.0777     0.0135 C.ar    
   9 C9            -4.5778     1.2377    -0.4312 C.ar    
  10 C10           -5.7281     2.0002    -0.4501 C.ar    
  11 C11           -6.9385     1.4456    -0.0212 C.ar    
  12 C12           -6.9772     0.1229     0.4241 C.ar    
  13 C13           -1.2549    -2.5474     0.1687 C.3     
  14 O14           -3.4904    -0.8246     0.0319 O.3     
  15 C15           -2.1818    -3.9456    -4.4135 C.3     
  16 F16           -5.6850     3.2798    -0.8815 F       
  17 B17           -8.2500     2.3084    -0.0400 Du      
  18 O18           -9.5675     1.9057     0.3604 O.3     
  19 O19           -8.3924     3.6742    -0.4555 O.3     
  20 C20           -9.6464     3.7102    -1.1689 C.3     
  21 C21          -10.4455     2.5076    -0.6141 C.3     
  22 C22          -10.7609     1.5146    -1.7344 C.3     
  23 C23          -11.7358     2.9873     0.0536 C.3     
  24 C24          -10.3860     5.0183    -0.8813 C.3     
  25 C25           -9.4095     3.5497    -2.6719 C.3     
  26 H26           -4.8368    -0.8120    -2.2452 H       
  27 H27           -4.2343    -2.2044    -4.2131 H       
  28 H28           -5.8571    -1.6552     0.7811 H       
  29 H29           -3.6422     1.6640    -0.7619 H       
  30 H30           -7.9101    -0.3086     0.7556 H       
  31 H31           -0.4444    -1.8206     0.1137 H       
  32 H32           -1.8601    -2.3505     1.0536 H       
  33 H33           -0.8379    -3.5526     0.2300 H       
  34 H34           -2.6946    -4.9052    -4.3475 H       
  35 H35           -2.4775    -3.4381    -5.3316 H       
  36 H36           -1.1042    -4.1092    -4.4196 H       
  37 H37           -9.8304     1.1516    -2.1708 H       
  38 H38          -11.3234     0.6743    -1.3275 H       
  39 H39          -11.3536     2.0104    -2.5032 H       
  40 H40          -12.3491     3.5142    -0.6775 H       
  41 H41          -12.2865     2.1291     0.4388 H       
  42 H42          -11.4912     3.6605     0.8753 H       
  43 H43           -9.7831     5.8594    -1.2236 H       
  44 H44          -11.3413     5.0186    -1.4062 H       
  45 H45          -10.5605     5.1089     0.1908 H       
  46 H46           -8.8967     2.6065    -2.8602 H       
  47 H47          -10.3669     3.5531    -3.1930 H       
  48 H48           -8.7962     4.3751    -3.0333 H       
@<TRIPOS>BOND
   1    1    2 ar
   2    1   15 1
   3    1    6 ar
   4    2    3 ar
   5    3    4 ar
   6    3   13 1
   7    4    5 ar
   8    4   14 1
   9    5    6 ar
  10    5   26 1
  11    6   27 1
  12    7    8 ar
  13    7   12 ar
  14    7   28 1
  15    8    9 ar
  16    8   14 1
  17    9   10 ar
  18    9   29 1
  19   10   11 ar
  20   10   16 1
  21   11   12 ar
  22   11   17 1
  23   12   30 1
  24   13   31 1
  25   13   32 1
  26   13   33 1
  27   15   34 1
  28   15   35 1
  29   15   36 1
  30   17   18 1
  31   17   19 1
  32   18   21 1
  33   19   20 1
  34   20   21 1
  35   20   24 1
  36   20   25 1
  37   21   22 1
  38   21   23 1
  39   22   37 1
  40   22   38 1
  41   22   39 1
  42   23   40 1
  43   23   41 1
  44   23   42 1
  45   24   43 1
  46   24   44 1
  47   24   45 1
  48   25   46 1
  49   25   47 1
  50   25   48 1

#	End of record

