#	Name: ASD03430211
#	Creating user name:	WinNT
#	Creation time:	15. 06. 2019 20:40

#	Modifying user name:	WinNT
#	Modification time:	15. 06. 2019 20:40

#	Program:	/corina/corina34_cracker 3.40 0067  02.08.2006

@<TRIPOS>MOLECULE
ASD03430211
  64   70    0    0    0
SMALL
NO_CHARGES


@<TRIPOS>ATOM
   1 C1             0.0282     1.3510     0.0294 C.ar    
   2 C2             0.0308    -0.0263     0.0298 C.ar    
   3 C3             1.2248    -0.7163     0.0525 C.ar    
   4 C4             2.4347    -0.0276     0.0839 C.ar    
   5 C5             2.4236     1.3621     0.0727 C.ar    
   6 C6             1.2230     2.0612     0.0424 C.ar    
   7 O7             3.4900    -0.8893     0.1360 O.3     
   8 C8             1.5640    -2.1821     0.0384 C.3     
   9 C9             3.0616    -2.1934    -0.2997 C.3     
  10 C10            0.3995    -3.8862     1.0684 C.ar    
  11 C11            1.2831    -2.8480     1.3530 C.ar    
  12 C12            0.7586    -2.9445    -0.9739 C.2     
  13 N13            0.1139    -3.9168    -0.2984 N.am    
  14 O14            0.6997    -2.7280    -2.1658 O.2     
  15 C15            1.7086    -2.6243     2.6429 C.ar    
  16 C16            1.2597    -3.4339     3.6715 C.ar    
  17 C17            0.3820    -4.4674     3.4007 C.ar    
  18 C18           -0.0477    -4.6956     2.1098 C.ar    
  19 C19           -0.7816    -4.8923    -0.9251 C.3     
  20 C20           -1.0951     2.3692     0.0264 C.3     
  21 C21           -0.3536     3.6649     0.4324 C.3     
  22 O22            0.9961     3.4041     0.0115 O.3     
  23 C23           -2.2043    -4.4057    -0.8237 C.ar    
  24 C24           -3.2344    -5.1235    -1.4342 C.ar    
  25 C25           -2.9339    -6.3631    -2.1813 C.2     
  26 O26           -1.7803    -6.7100    -2.3442 O.2     
  27 C27           -2.4924    -3.2531    -0.1229 C.ar    
  28 C28           -3.7983    -2.8051    -0.0285 C.ar    
  29 C29           -4.8230    -3.5086    -0.6358 C.ar    
  30 C30           -4.5493    -4.6659    -1.3355 C.ar    
  31 N31           -3.9390    -7.1086    -2.6819 N.am    
  32 C32           -3.6596    -8.3226    -3.3172 C.ar    
  33 C33           -2.4191    -8.5299    -3.9075 C.ar    
  34 C34           -2.1451    -9.7294    -4.5345 C.ar    
  35 C35           -4.6193    -9.3251    -3.3543 C.ar    
  36 C36           -4.3395   -10.5249    -3.9838 C.ar    
  37 C37           -3.1038   -10.7248    -4.5763 C.ar    
  38 F38           -5.2720   -11.5017    -4.0205 F       
  39 C39           -5.9638    -9.1068    -2.7094 C.3     
  40 H40           -0.9039    -0.5671     0.0126 H       
  41 H41            3.3575     1.9043     0.0885 H       
  42 H42            3.2154    -2.3131    -1.3721 H       
  43 H43            3.5779    -2.9761     0.2562 H       
  44 H44            2.3939    -1.8163     2.8524 H       
  45 H45            1.5944    -3.2592     4.6834 H       
  46 H46            0.0315    -5.0992     4.2034 H       
  47 H47           -0.7332    -5.5049     1.9060 H       
  48 H48           -0.5122    -5.0111    -1.9745 H       
  49 H49           -0.6884    -5.8511    -0.4152 H       
  50 H50           -1.5311     2.4652    -0.9680 H       
  51 H51           -1.8575     2.1102     0.7611 H       
  52 H52           -0.7633     4.5259    -0.0958 H       
  53 H53           -0.3998     3.8145     1.5111 H       
  54 H54           -1.6970    -2.6992     0.3535 H       
  55 H55           -4.0185    -1.9025     0.5220 H       
  56 H56           -5.8401    -3.1538    -0.5581 H       
  57 H57           -5.3501    -5.2140    -1.8095 H       
  58 H58           -4.8561    -6.8031    -2.6014 H       
  59 H59           -1.6695    -7.7530    -3.8763 H       
  60 H60           -1.1806    -9.8900    -4.9932 H       
  61 H61           -2.8867   -11.6619    -5.0673 H       
  62 H62           -6.6502    -8.6747    -3.4376 H       
  63 H63           -6.3583   -10.0609    -2.3599 H       
  64 H64           -5.8553    -8.4270    -1.8643 H       
@<TRIPOS>BOND
   1    1    2 ar
   2    1    6 ar
   3    1   20 1
   4    2    3 ar
   5    2   40 1
   6    3    4 ar
   7    3    8 1
   8    4    5 ar
   9    4    7 1
  10    5    6 ar
  11    5   41 1
  12    6   22 1
  13    7    9 1
  14    8    9 1
  15    8   11 1
  16    8   12 1
  17    9   42 1
  18    9   43 1
  19   10   11 ar
  20   10   13 1
  21   10   18 ar
  22   11   15 ar
  23   12   13 am
  24   12   14 2
  25   13   19 1
  26   15   16 ar
  27   15   44 1
  28   16   17 ar
  29   16   45 1
  30   17   18 ar
  31   17   46 1
  32   18   47 1
  33   19   23 1
  34   19   48 1
  35   19   49 1
  36   20   21 1
  37   20   50 1
  38   20   51 1
  39   21   22 1
  40   21   52 1
  41   21   53 1
  42   23   24 ar
  43   23   27 ar
  44   24   25 1
  45   24   30 ar
  46   25   26 2
  47   25   31 am
  48   27   28 ar
  49   27   54 1
  50   28   29 ar
  51   28   55 1
  52   29   30 ar
  53   29   56 1
  54   30   57 1
  55   31   32 1
  56   31   58 1
  57   32   33 ar
  58   32   35 ar
  59   33   34 ar
  60   33   59 1
  61   34   37 ar
  62   34   60 1
  63   35   36 ar
  64   35   39 1
  65   36   37 ar
  66   36   38 1
  67   37   61 1
  68   39   62 1
  69   39   63 1
  70   39   64 1

#	End of record

