#	Name: ASD08850003
#	Creating user name:	WinNT
#	Creation time:	15. 06. 2019 21:20

#	Modifying user name:	WinNT
#	Modification time:	15. 06. 2019 21:20

#	Program:	/corina/corina34_cracker 3.40 0067  02.08.2006

@<TRIPOS>MOLECULE
ASD08850003
  47   47    0    0    0
SMALL
NO_CHARGES


@<TRIPOS>ATOM
   1 C1            -0.0169     1.3941     0.0097 C.ar    
   2 C2             0.0021    -0.0041     0.0020 C.ar    
   3 C3             1.2246    -0.6827    -0.0133 C.ar    
   4 C4             2.4038     0.0274    -0.0207 C.ar    
   5 C5             2.3804     1.4178    -0.0126 C.ar    
   6 C6             1.1669     2.0966     0.0022 C.ar    
   7 O7             3.5451     2.1140    -0.0195 O.3     
   8 C8            -1.2648    -0.7614     0.0105 C.2     
   9 C9            -1.2425    -2.2281     0.0024 C.2     
  10 O10           -2.3277    -0.1691     0.0243 O.2     
  11 C11           -2.4039    -2.9224     0.0103 C.2     
  12 C12           -2.3814    -4.4029     0.0021 C.2     
  13 O13           -3.5859    -2.2637     0.0255 O.3     
  14 O14           -1.3209    -4.9939    -0.0116 O.2     
  15 O15           -3.5377    -5.0941     0.0099 O.3     
  16 C16            3.4486     3.5397    -0.0105 C.3     
  17 C17            4.8534     4.1460    -0.0202 C.3     
  18 C18            4.7501     5.6725    -0.0105 C.3     
  19 C19            6.1549     6.2787    -0.0202 C.3     
  20 C20            6.0516     7.8052    -0.0105 C.3     
  21 C21            7.4564     8.4114    -0.0202 C.3     
  22 C22            7.3531     9.9379    -0.0105 C.3     
  23 C23            8.7579    10.5441    -0.0202 C.3     
  24 H24           -0.9590     1.9221     0.0170 H       
  25 H25            1.2436    -1.7626    -0.0189 H       
  26 H26            3.3484    -0.4959    -0.0326 H       
  27 H27            1.1532     3.1765     0.0077 H       
  28 H28           -0.2992    -2.7537    -0.0097 H       
  29 H29           -4.3594    -2.8439     0.0301 H       
  30 H30           -3.4724    -6.0589     0.0040 H       
  31 H31            2.9032     3.8726    -0.8935 H       
  32 H32            2.9198     3.8625     0.8863 H       
  33 H33            5.3989     3.8131     0.8628 H       
  34 H34            5.3822     3.8233    -0.9170 H       
  35 H35            4.2047     6.0053    -0.8935 H       
  36 H36            4.2213     5.9952     0.8863 H       
  37 H37            6.7004     5.9458     0.8628 H       
  38 H38            6.6837     5.9560    -0.9170 H       
  39 H39            5.5062     8.1381    -0.8936 H       
  40 H40            5.5228     8.1279     0.8863 H       
  41 H41            8.0019     8.0785     0.8628 H       
  42 H42            7.9852     8.0887    -0.9170 H       
  43 H43            6.8077    10.2708    -0.8936 H       
  44 H44            6.8243    10.2606     0.8863 H       
  45 H45            8.6843    11.6316    -0.0133 H       
  46 H46            9.3034    10.2113     0.8628 H       
  47 H47            9.2867    10.2214    -0.9171 H       
@<TRIPOS>BOND
   1    1    2 ar
   2    1    6 ar
   3    1   24 1
   4    2    3 ar
   5    2    8 1
   6    3    4 ar
   7    3   25 1
   8    4    5 ar
   9    4   26 1
  10    5    6 ar
  11    5    7 1
  12    6   27 1
  13    7   16 1
  14    8    9 1
  15    8   10 2
  16    9   11 2
  17    9   28 1
  18   11   12 1
  19   11   13 1
  20   12   14 2
  21   12   15 1
  22   13   29 1
  23   15   30 1
  24   16   17 1
  25   16   31 1
  26   16   32 1
  27   17   18 1
  28   17   33 1
  29   17   34 1
  30   18   19 1
  31   18   35 1
  32   18   36 1
  33   19   20 1
  34   19   37 1
  35   19   38 1
  36   20   21 1
  37   20   39 1
  38   20   40 1
  39   21   22 1
  40   21   41 1
  41   21   42 1
  42   22   23 1
  43   22   43 1
  44   22   44 1
  45   23   45 1
  46   23   46 1
  47   23   47 1

#	End of record

