#	Name: ASD00860007
#	Creating user name:	WinNT
#	Creation time:	15. 06. 2019 18:53

#	Modifying user name:	WinNT
#	Modification time:	15. 06. 2019 18:53

#	Program:	/corina/corina34_cracker 3.40 0067  02.08.2006

@<TRIPOS>MOLECULE
ASD00860007
  33   35    0    0    0
SMALL
NO_CHARGES


@<TRIPOS>ATOM
   1 O1            -0.0173     1.4248     0.0099 O.3     
   2 C2             0.0021    -0.0041     0.0020 C.3     
   3 C3            -1.4333    -0.5336     0.0129 C.3     
   4 C4            -1.4374    -2.0739     0.1309 C.3     
   5 O5            -1.6648    -2.4718     1.4844 O.3     
   6 C6            -2.6134    -2.5163    -0.7684 C.3     
   7 O7            -3.6030    -3.2008     0.0023 O.3     
   8 C8            -3.1807    -1.1909    -1.3233 C.3     
   9 O9            -2.0803    -0.2585    -1.2487 O.3     
  10 N10           -3.6105    -1.3624    -2.7133 N.pl3   
  11 C11           -2.8730    -1.0811    -3.8268 C.2     
  12 N12           -3.5649    -1.3534    -4.8943 N.2     
  13 C13           -4.7831    -1.8239    -4.5316 C.2     
  14 C14           -5.9204    -2.2678    -5.2460 C.2     
  15 O15           -5.9284    -2.2762    -6.4652 O.2     
  16 N16           -6.9978    -2.6829    -4.5436 N.am    
  17 C17           -6.9778    -2.6697    -3.1808 C.2     
  18 N18           -8.0862    -3.0974    -2.4940 N.pl3   
  19 N19           -5.9274    -2.2597    -2.5054 N.2     
  20 C20           -4.8226    -1.8396    -3.1327 C.2     
  21 H21            0.8606     1.8301     0.0037 H       
  22 H22            0.5123    -0.3556    -0.8948 H       
  23 H23            0.5293    -0.3651     0.8851 H       
  24 H24           -1.9950    -0.0887     0.8343 H       
  25 H25           -0.4975    -2.4875    -0.2350 H       
  26 H26           -0.9866    -2.1679     2.1030 H       
  27 H27           -2.2562    -3.1506    -1.5796 H       
  28 H28           -3.2828    -4.0099     0.4241 H       
  29 H29           -4.0120    -0.8468    -0.7079 H       
  30 H30           -1.8660    -0.6910    -3.8223 H       
  31 H31           -7.7894    -2.9914    -5.0116 H       
  32 H32           -8.8689    -3.4032    -2.9785 H       
  33 H33           -8.0870    -3.0938    -1.5240 H       
@<TRIPOS>BOND
   1    1    2 1
   2    1   21 1
   3    2    3 1
   4    2   22 1
   5    2   23 1
   6    3    4 1
   7    3    9 1
   8    3   24 1
   9    4    5 1
  10    4    6 1
  11    4   25 1
  12    5   26 1
  13    6    7 1
  14    6    8 1
  15    6   27 1
  16    7   28 1
  17    8    9 1
  18    8   10 1
  19    8   29 1
  20   10   11 1
  21   10   20 1
  22   11   12 2
  23   11   30 1
  24   12   13 1
  25   13   14 1
  26   13   20 2
  27   14   15 2
  28   14   16 am
  29   16   17 1
  30   16   31 1
  31   17   18 1
  32   17   19 2
  33   18   32 1
  34   18   33 1
  35   19   20 1

#	End of record

