#	Name: ASD06660029
#	Creating user name:	WinNT
#	Creation time:	15. 06. 2019 21:07

#	Modifying user name:	WinNT
#	Modification time:	15. 06. 2019 21:07

#	Program:	/corina/corina34_cracker 3.40 0067  02.08.2006

@<TRIPOS>MOLECULE
ASD06660029
  75   80    0    0    0
SMALL
NO_CHARGES


@<TRIPOS>ATOM
   1 C1            -0.0184     1.5028     0.0103 C.2     
   2 C2             0.0021    -0.0041     0.0020 C.3     
   3 C3            -0.7241    -0.5171    -1.2431 C.3     
   4 O4             1.0197     2.1211     0.0037 O.2     
   5 O5            -1.1898     2.1580     0.0194 O.3     
   6 N6             1.3897    -0.4735    -0.0138 N.am    
   7 C7             2.4079    -0.2997    -0.8700 C.2     
   8 C8             3.3385    -1.1228    -0.0508 C.3     
   9 C9             2.1759    -1.2976     0.8998 C.3     
  10 C10            3.9012    -2.3902    -0.7039 C.3     
  11 C11            4.5811    -0.4185     0.5053 C.3     
  12 C12            5.5960    -1.5249     0.7144 C.ar    
  13 C13            6.7664    -1.5397     1.4539 C.ar    
  14 C14            7.5463    -2.6787     1.4987 C.ar    
  15 C15            7.1576    -3.8087     0.8032 C.ar    
  16 C16            5.9899    -3.7964     0.0658 C.ar    
  17 C17            5.2064    -2.6557     0.0200 C.ar    
  18 O18            2.5255     0.3015    -1.9168 O.2     
  19 C19           -0.8113    -2.0207    -1.1900 C.ar    
  20 C20           -1.8983    -2.6278    -0.5884 C.ar    
  21 C21           -1.9814    -4.0054    -0.5380 C.ar    
  22 C22           -0.9713    -4.7813    -1.0925 C.ar    
  23 C23            0.1192    -4.1682    -1.6960 C.ar    
  24 C24            0.1932    -2.7901    -1.7480 C.ar    
  25 N25           -1.0519    -6.1748    -1.0428 N.3     
  26 C26            0.1154    -6.7927    -1.6847 C.3     
  27 C27           -0.0755    -8.3100    -1.7414 C.3     
  28 C28           -0.2456    -8.8516    -0.3193 C.3     
  29 C29           -1.4383    -8.1570     0.3437 C.3     
  30 C30           -1.2079    -6.6440     0.3399 C.3     
  31 C31           -0.4975   -10.3598    -0.3732 C.3     
  32 N32           -0.5413   -10.8966     0.9892 N.pl3   
  33 C33           -0.7596   -12.2539     1.1947 C.ar    
  34 C34           -0.9358   -13.0971     0.1020 C.ar    
  35 C35           -1.1521   -14.4454     0.3210 C.ar    
  36 C36           -1.1853   -14.9073     1.6304 C.ar    
  37 C37           -1.0027   -14.0145     2.6670 C.ar    
  38 N38           -0.7927   -12.7337     2.4282 N.ar    
  39 C39           -1.3481   -15.3920    -0.8351 C.3     
  40 H40           -0.4983    -0.3791     0.8948 H       
  41 H41           -1.7288    -0.0959    -1.2772 H       
  42 H42           -0.1736    -0.2164    -2.1345 H       
  43 H43           -1.1523     3.1243     0.0245 H       
  44 H44            2.3367    -0.8359     1.8741 H       
  45 H45            1.8229    -2.3263     0.9719 H       
  46 H46            3.2143    -3.2251    -0.5654 H       
  47 H47            4.0840    -2.2207    -1.7650 H       
  48 H48            4.9571     0.3101    -0.2129 H       
  49 H49            4.3491     0.0672     1.4532 H       
  50 H50            7.0708    -0.6573     1.9973 H       
  51 H51            8.4590    -2.6866     2.0760 H       
  52 H52            7.7667    -4.6999     0.8363 H       
  53 H53            5.6870    -4.6794    -0.4772 H       
  54 H54           -2.6831    -2.0240    -0.1572 H       
  55 H55           -2.8305    -4.4790    -0.0677 H       
  56 H56            0.9062    -4.7685    -2.1281 H       
  57 H57            1.0385    -2.3127    -2.2213 H       
  58 H58            0.2226    -6.4021    -2.6967 H       
  59 H59            1.0115    -6.5606    -1.1092 H       
  60 H60           -0.9638    -8.5434    -2.3284 H       
  61 H61            0.7981    -8.7697    -2.2037 H       
  62 H62            0.6581    -8.6527     0.2568 H       
  63 H63           -2.3480    -8.3879    -0.2105 H       
  64 H64           -1.5385    -8.5072     1.3710 H       
  65 H65           -0.3056    -6.4127     0.9059 H       
  66 H66           -2.0619    -6.1455     0.7984 H       
  67 H67           -1.4485   -10.5517    -0.8701 H       
  68 H68            0.3065   -10.8428    -0.9284 H       
  69 H69           -0.4180   -10.3049     1.7478 H       
  70 H70           -0.9043   -12.7040    -0.9034 H       
  71 H71           -1.3525   -15.9544     1.8353 H       
  72 H72           -1.0277   -14.3695     3.6867 H       
  73 H73           -0.3820   -15.7884    -1.1479 H       
  74 H74           -1.9951   -16.2132    -0.5267 H       
  75 H75           -1.8087   -14.8592    -1.6669 H       
@<TRIPOS>BOND
   1    1    2 1
   2    1    4 2
   3    1    5 1
   4    2    3 1
   5    2    6 1
   6    2   40 1
   7    3   19 1
   8    3   41 1
   9    3   42 1
  10    5   43 1
  11    6    7 am
  12    6    9 1
  13    7    8 1
  14    7   18 2
  15    8    9 1
  16    8   10 1
  17    8   11 1
  18    9   44 1
  19    9   45 1
  20   10   17 1
  21   10   46 1
  22   10   47 1
  23   11   12 1
  24   11   48 1
  25   11   49 1
  26   12   13 ar
  27   12   17 ar
  28   13   14 ar
  29   13   50 1
  30   14   15 ar
  31   14   51 1
  32   15   16 ar
  33   15   52 1
  34   16   17 ar
  35   16   53 1
  36   19   20 ar
  37   19   24 ar
  38   20   21 ar
  39   20   54 1
  40   21   22 ar
  41   21   55 1
  42   22   23 ar
  43   22   25 1
  44   23   24 ar
  45   23   56 1
  46   24   57 1
  47   25   26 1
  48   25   30 1
  49   26   27 1
  50   26   58 1
  51   26   59 1
  52   27   28 1
  53   27   60 1
  54   27   61 1
  55   28   29 1
  56   28   31 1
  57   28   62 1
  58   29   30 1
  59   29   63 1
  60   29   64 1
  61   30   65 1
  62   30   66 1
  63   31   32 1
  64   31   67 1
  65   31   68 1
  66   32   33 1
  67   32   69 1
  68   33   34 ar
  69   33   38 ar
  70   34   35 ar
  71   34   70 1
  72   35   36 ar
  73   35   39 1
  74   36   37 ar
  75   36   71 1
  76   37   38 ar
  77   37   72 1
  78   39   73 1
  79   39   74 1
  80   39   75 1

#	End of record

