#	Name: ASD01885655
#	Creating user name:	WinNT
#	Creation time:	15. 06. 2019 19:49

#	Modifying user name:	WinNT
#	Modification time:	15. 06. 2019 19:49

#	Program:	/corina/corina34_cracker 3.40 0067  02.08.2006

@<TRIPOS>MOLECULE
ASD01885655
  43   46    0    0    0
SMALL
NO_CHARGES


@<TRIPOS>ATOM
   1 C1            -0.0160     1.3299     0.0094 C.ar    
   2 C2            -1.2516     2.0246     0.0189 C.ar    
   3 C3            -2.4603     1.2819     0.0205 C.ar    
   4 C4            -2.3724    -0.1023     0.0125 C.ar    
   5 C5            -1.1116    -0.7137     0.0033 C.ar    
   6 N6             0.0021    -0.0041     0.0020 N.ar    
   7 C7             1.1370     3.4287     0.0097 C.ar    
   8 C8            -0.0796     4.1069     0.0258 C.ar    
   9 C9            -1.2599     3.4250     0.0271 C.ar    
  10 C10           -3.7750     1.9632     0.0308 C.ar    
  11 C11           -1.0288    -2.1433    -0.0049 C.1     
  12 C12            2.4236     4.2134     0.0092 C.3     
  13 C13            1.1821     2.0685     0.0019 C.ar    
  14 N14            2.8503     4.4525     1.3901 N.am    
  15 C15           -4.7577     1.6018    -0.8911 C.ar    
  16 C16           -5.9806     2.2394    -0.8774 C.ar    
  17 C17           -6.2339     3.2377     0.0500 C.ar    
  18 C18           -5.2607     3.6006     0.9676 C.ar    
  19 C19           -4.0369     2.9647     0.9661 C.ar    
  20 F20           -7.4334     3.8593     0.0594 F       
  21 C21            2.4887     5.5174     2.1148 C.2     
  22 O22            1.7654     6.4022     1.7010 O.2     
  23 C23            3.6509     3.6240     2.0893 C.2     
  24 C24            3.8187     4.2687     3.4509 C.3     
  25 N25            3.0150     5.4993     3.3527 N.am    
  26 O26            4.1356     2.5800     1.7087 O.2     
  27 C27            2.8269     6.5078     4.3986 C.3     
  28 N28           -0.9630    -3.2774    -0.0113 N.1     
  29 H29           -3.2690    -0.7044     0.0137 H       
  30 H30           -0.0878     5.1868     0.0377 H       
  31 H31           -2.1968     3.9621     0.0341 H       
  32 H32            3.1935     3.6485    -0.5164 H       
  33 H33            2.2667     5.1680    -0.4931 H       
  34 H34            2.1336     1.5577    -0.0097 H       
  35 H35           -4.5612     0.8243    -1.6144 H       
  36 H36           -6.7419     1.9606    -1.5909 H       
  37 H37           -5.4644     4.3760     1.6913 H       
  38 H38           -3.2809     3.2446     1.6849 H       
  39 H39            3.4271     3.6191     4.2337 H       
  40 H40            4.8663     4.5059     3.6364 H       
  41 H41            3.6034     7.2680     4.3142 H       
  42 H42            1.8483     6.9735     4.2825 H       
  43 H43            2.8891     6.0320     5.3774 H       
@<TRIPOS>BOND
   1    1    6 ar
   2    1   13 ar
   3    1    2 ar
   4    2    3 ar
   5    2    9 ar
   6    3   10 1
   7    3    4 ar
   8    4    5 ar
   9    4   29 1
  10    5   11 1
  11    5    6 ar
  12    7   12 1
  13    7    8 ar
  14    7   13 ar
  15    8    9 ar
  16    8   30 1
  17    9   31 1
  18   10   15 ar
  19   10   19 ar
  20   11   28 3
  21   12   14 1
  22   12   32 1
  23   12   33 1
  24   13   34 1
  25   14   23 am
  26   14   21 am
  27   15   16 ar
  28   15   35 1
  29   16   17 ar
  30   16   36 1
  31   17   20 1
  32   17   18 ar
  33   18   19 ar
  34   18   37 1
  35   19   38 1
  36   21   22 2
  37   21   25 am
  38   23   24 1
  39   23   26 2
  40   24   25 1
  41   24   39 1
  42   24   40 1
  43   25   27 1
  44   27   41 1
  45   27   42 1
  46   27   43 1

#	End of record

