#	Name: ASD00990084
#	Creating user name:	WinNT
#	Creation time:	15. 06. 2019 18:54

#	Modifying user name:	WinNT
#	Modification time:	15. 06. 2019 18:54

#	Program:	/corina/corina34_cracker 3.40 0067  02.08.2006

@<TRIPOS>MOLECULE
ASD00990084
  50   52    0    0    0
SMALL
NO_CHARGES


@<TRIPOS>ATOM
   1 C1            -0.4732     0.8031    -1.3021 C.ar    
   2 C2            -0.3309    -0.5702    -1.3365 C.ar    
   3 C3             0.9202    -1.1406    -1.1613 C.ar    
   4 C4             2.0302    -0.3229    -0.9510 C.ar    
   5 C5             1.8811     1.0547    -0.9179 C.ar    
   6 C6             0.6296     1.6149    -1.0932 C.ar    
   7 O7             1.3569    -2.4241    -1.1452 O.3     
   8 C8             2.6825    -2.4362    -0.9351 C.2     
   9 N9             3.1289    -1.1705    -0.8116 N.am    
  10 Cl10           0.4397     3.3400    -1.0528 Cl      
  11 C11            4.5151    -0.7601    -0.5743 C.3     
  12 C12            5.2134    -0.5617    -1.8950 C.2     
  13 N13            6.5058    -0.1805    -1.9233 N.am    
  14 C14            7.1846     0.0123    -3.2072 C.3     
  15 O15            4.6123    -0.7452    -2.9323 O.2     
  16 C16            7.2318     0.0410    -0.6703 C.3     
  17 C17            6.9657     1.4250    -3.6840 C.2     
  18 N18            7.8355     2.4543    -3.4970 N.pl3   
  19 C19            7.2751     3.5760    -4.0762 C.ar    
  20 C20            6.0431     3.1621    -4.6094 C.ar    
  21 N21            5.9199     1.8369    -4.3392 N.2     
  22 C22            7.6784     4.8978    -4.2072 C.ar    
  23 C23            6.8669     5.8012    -4.8611 C.ar    
  24 C24            5.6469     5.3966    -5.3903 C.ar    
  25 C25            5.2320     4.0896    -5.2693 C.ar    
  26 O26            3.3735    -3.4344    -0.8667 O.2     
  27 Cl27           4.6388     6.5483    -6.2096 Cl      
  28 Cl28           7.3720     7.4541    -5.0236 Cl      
  29 C29            9.1267     2.3857    -2.8083 C.3     
  30 C30           10.2409     2.1675    -3.8340 C.3     
  31 O31           11.5003     2.1007    -3.1623 O.3     
  32 H32           -1.4479     1.2463    -1.4431 H       
  33 H33           -1.1937    -1.1991    -1.4993 H       
  34 H34            2.7402     1.6886    -0.7554 H       
  35 H35            4.5264     0.1745    -0.0134 H       
  36 H36            5.0301    -1.5327    -0.0034 H       
  37 H37            8.2524    -0.1684    -3.0843 H       
  38 H38            6.7801    -0.6854    -3.9404 H       
  39 H39            7.6285    -0.9072    -0.3077 H       
  40 H40            8.0534     0.7358    -0.8445 H       
  41 H41            6.5536     0.4593     0.0734 H       
  42 H42            8.6250     5.2181    -3.7977 H       
  43 H43            4.2829     3.7819    -5.6828 H       
  44 H44            9.3031     3.3188    -2.2733 H       
  45 H45            9.1173     1.5571    -2.1003 H       
  46 H46           10.0645     1.2344    -4.3691 H       
  47 H47           10.2503     2.9962    -4.5421 H       
  48 H48           12.2540     1.9633    -3.7523 H       
  49 Cl49          17.2540    12.4541     5.0734 Cl      
  50 H50           17.2540    13.8241     5.0734 H       
@<TRIPOS>BOND
   1    1    2 ar
   2    1    6 ar
   3    1   32 1
   4    2    3 ar
   5    2   33 1
   6    3    4 ar
   7    3    7 1
   8    4    5 ar
   9    4    9 1
  10    5    6 ar
  11    5   34 1
  12    6   10 1
  13    7    8 1
  14    8    9 am
  15    8   26 2
  16    9   11 1
  17   11   12 1
  18   11   35 1
  19   11   36 1
  20   12   13 am
  21   12   15 2
  22   13   14 1
  23   13   16 1
  24   14   17 1
  25   14   37 1
  26   14   38 1
  27   16   39 1
  28   16   40 1
  29   16   41 1
  30   17   18 1
  31   17   21 2
  32   18   19 1
  33   18   29 1
  34   19   20 ar
  35   19   22 ar
  36   20   21 1
  37   20   25 ar
  38   22   23 ar
  39   22   42 1
  40   23   24 ar
  41   23   28 1
  42   24   25 ar
  43   24   27 1
  44   25   43 1
  45   29   30 1
  46   29   44 1
  47   29   45 1
  48   30   31 1
  49   30   46 1
  50   30   47 1
  51   31   48 1
  52   49   50 1

#	End of record

