#	Name: ASD03091422
#	Creating user name:	WinNT
#	Creation time:	15. 06. 2019 20:30

#	Modifying user name:	WinNT
#	Modification time:	15. 06. 2019 20:30

#	Program:	/corina/corina34_cracker 3.40 0067  02.08.2006

@<TRIPOS>MOLECULE
ASD03091422
  32   34    0    0    0
SMALL
NO_CHARGES


@<TRIPOS>ATOM
   1 C1             0.0343     1.6918    -0.0450 C.3     
   2 C2            -0.0005     0.1635    -0.1105 C.3     
   3 N3             0.6563    -0.3939     1.0787 N.3     
   4 C4            -0.0452     0.0023     2.3065 C.3     
   5 C5            -0.0123     1.5257     2.4460 C.3     
   6 C6             1.4441     1.9965     2.5210 C.3     
   7 N7             2.1055     1.6900     1.2454 N.am    
   8 C8             1.4914     2.1644    -0.0022 C.3     
   9 C9            -0.6829     2.1611     1.2244 C.3     
  10 C10            3.2546     0.9861     1.2201 C.2     
  11 O11            3.8150     0.6983     2.2615 O.2     
  12 O12            3.2459     0.6959    -1.2716 O.3     
  13 C13            3.8292     0.5673    -0.0611 C.2     
  14 C14            5.0491    -0.0212    -0.2395 C.2     
  15 C15            5.1901    -0.2491    -1.6161 C.2     
  16 C16            4.0630     0.2049    -2.2127 C.2     
  17 Cl17           3.7314     0.1589    -3.9161 Cl      
  18 H18           -0.4585     2.1065    -0.9244 H       
  19 H19           -1.0360    -0.1749    -0.1457 H       
  20 H20            0.5222    -0.1736    -1.0057 H       
  21 H21            0.7313    -1.3979     1.0131 H       
  22 H22           -1.0803    -0.3356     2.2584 H       
  23 H23            0.4452    -0.4518     3.1675 H       
  24 H24           -0.5387     1.8207     3.3537 H       
  25 H25            1.4719     3.0717     2.6981 H       
  26 H26            1.9549     1.4770     3.3317 H       
  27 H27            2.0334     1.7554    -0.8549 H       
  28 H28            1.5235     3.2534    -0.0343 H       
  29 H29           -0.6200     3.2468     1.2980 H       
  30 H30           -1.7292     1.8581     1.1846 H       
  31 H31            5.7662    -0.2640     0.5307 H       
  32 H32            6.0386    -0.7015    -2.1079 H       
@<TRIPOS>BOND
   1    1    2 1
   2    1    8 1
   3    1    9 1
   4    1   18 1
   5    2    3 1
   6    2   19 1
   7    2   20 1
   8    3    4 1
   9    3   21 1
  10    4    5 1
  11    4   22 1
  12    4   23 1
  13    5    6 1
  14    5    9 1
  15    5   24 1
  16    6    7 1
  17    6   25 1
  18    6   26 1
  19    7    8 1
  20    7   10 am
  21    8   27 1
  22    8   28 1
  23    9   29 1
  24    9   30 1
  25   10   11 2
  26   10   13 1
  27   12   13 1
  28   12   16 1
  29   13   14 2
  30   14   15 1
  31   14   31 1
  32   15   16 2
  33   15   32 1
  34   16   17 1

#	End of record

