#	Name: ASD06590069
#	Creating user name:	WinNT
#	Creation time:	15. 06. 2019 21:06

#	Modifying user name:	WinNT
#	Modification time:	15. 06. 2019 21:06

#	Program:	/corina/corina34_cracker 3.40 0067  02.08.2006

@<TRIPOS>MOLECULE
ASD06590069
 303  303    0    0    0
SMALL
NO_CHARGES


@<TRIPOS>ATOM
   1 C1            -7.9678     9.0147    11.9268 C.2     
   2 O2            -7.8654     9.5857    10.8618 O.2     
   3 N3            -6.7501    10.9081    12.8331 N.am    
   4 C4            -7.3834     9.6311    13.1716 C.3     
   5 C5            -8.4966     9.8691    14.1938 C.3     
   6 C6            -7.9262    10.6075    15.4064 C.3     
   7 O7            -9.5294    10.6572    13.5986 O.3     
   8 C8           -10.6891     7.8106    10.7482 C.2     
   9 O9           -11.0971     8.5631    11.6073 O.2     
  10 N10           -8.6091     7.8314    11.9980 N.am    
  11 C11           -9.2772     7.2878    10.8130 C.3     
  12 C12           -9.3022     5.7603    10.8973 C.3     
  13 C13           -7.8917     5.2316    10.8531 C.2     
  14 O14           -6.9552     6.0021    10.8474 O.2     
  15 N15           -7.6710     3.9024    10.8199 N.am    
  16 C16          -13.7269     6.9894     8.8879 C.2     
  17 O17          -13.2384     5.9796     8.4266 O.2     
  18 N18          -11.4984     7.4418     9.7355 N.am    
  19 C19          -12.8710     7.9500     9.6726 C.3     
  20 C20          -12.8777     9.3171     8.9856 C.3     
  21 C21          -17.2790     6.8412     7.8711 C.2     
  22 O22          -17.5624     7.8905     8.4091 O.2     
  23 N23          -15.0351     7.2523     8.6987 N.am    
  24 C24          -15.8671     6.3184     7.9358 C.3     
  25 C25          -20.5517     5.5013     6.9449 C.2     
  26 O26          -20.1257     4.3691     6.8583 O.2     
  27 N27          -18.2268     6.1426     7.2152 N.am    
  28 C28          -19.5994     6.6508     7.1523 C.3     
  29 C29          -19.7261     7.6345     5.9873 C.3     
  30 C30          -24.0604     5.1168     5.9943 C.2     
  31 O31          -24.1728     6.2927     5.7194 O.2     
  32 N32          -21.8766     5.7315     6.8558 N.am    
  33 C33          -22.8023     4.6141     6.6542 C.3     
  34 C34          -23.1504     3.9898     8.0070 C.3     
  35 O35          -23.8691     4.9381     8.7983 O.3     
  36 C36          -27.2581     5.2647     5.9343 C.2     
  37 O37          -27.0284     5.2610     7.1252 O.2     
  38 N38          -25.0608     4.2596     5.7095 N.am    
  39 C39          -26.2354     4.7250     4.9680 C.3     
  40 C40          -26.8397     3.5577     4.1851 C.3     
  41 C41          -25.8695     3.1098     3.1224 C.2     
  42 O42          -24.7729     3.6125     3.0550 O.2     
  43 O43          -26.2237     2.1524     2.2508 O.3     
  44 C44          -30.7944     6.1807     5.7990 C.2     
  45 O45          -30.9287     5.7198     4.6853 O.2     
  46 N46          -28.4280     5.7515     5.4752 N.am    
  47 C47          -29.4222     6.2762     6.4146 C.3     
  48 C48          -29.1048     7.7396     6.7286 C.3     
  49 C49          -27.6662     7.8517     7.2372 C.3     
  50 O50          -29.2535     8.5241     5.5435 O.3     
  51 C51          -34.1089     7.5493     6.5093 C.2     
  52 O52          -33.6800     8.2911     7.3675 O.2     
  53 N53          -31.8725     6.6075     6.4862 N.am    
  54 C54          -33.2064     6.5147     5.8878 C.3     
  55 C55          -33.7819     5.1194     6.1384 C.3     
  56 C56          -32.9350     4.0788     5.4028 C.3     
  57 C57          -33.5104     2.6835     5.6534 C.3     
  58 N58          -32.6995     1.6871     4.9492 N.pl3   
  59 C59          -33.0269     0.3542     5.0279 C.2     
  60 N60          -32.3055    -0.5323     4.4013 N.2     
  61 N61          -34.1154    -0.0437     5.7676 N.pl3   
  62 C62          -37.7037     8.2067     6.5993 C.2     
  63 O63          -37.9668     7.1505     6.0644 O.2     
  64 N64          -35.3926     7.6502     6.1113 N.am    
  65 C65          -36.2699     8.6559     6.7155 C.3     
  66 C66          -36.0930     9.9902     5.9880 C.3     
  67 C67          -34.6704    10.5077     6.2106 C.3     
  68 C68          -34.4961    11.8219     5.4940 C.2     
  69 O69          -35.4188    12.2978     4.8670 O.2     
  70 N70          -33.3149    12.4685     5.5500 N.am    
  71 C71          -40.9947     9.7450     7.0067 C.2     
  72 O72          -40.5234    10.8575     7.1120 O.2     
  73 N73          -38.6936     8.9788     7.0897 N.am    
  74 C74          -40.0875     8.5421     6.9767 C.3     
  75 C75          -40.4284     7.6169     8.1466 C.3     
  76 C76          -39.5943     6.3383     8.0455 C.3     
  77 C77          -39.9301     5.4269     9.1978 C.2     
  78 O78          -40.7554     5.7667    10.0190 O.2     
  79 N79          -39.3133     4.2344     9.3157 N.am    
  80 C80          -44.5751    10.3428     7.4392 C.2     
  81 O81          -44.7888     9.1868     7.7373 O.2     
  82 N82          -42.3299     9.5845     6.9164 N.am    
  83 C83          -43.2118    10.7539     6.9456 C.3     
  84 C84          -43.3340    11.3358     5.5358 C.3     
  85 C85          -41.9928    11.8590     5.0904 C.ar    
  86 C86          -41.1149    11.0266     4.4210 C.ar    
  87 C87          -39.8846    11.5037     4.0121 C.ar    
  88 C88          -39.5305    12.8194     4.2731 C.ar    
  89 O89          -38.3210    13.2912     3.8714 O.3     
  90 C90          -40.4133    13.6528     4.9445 C.ar    
  91 C91          -41.6445    13.1723     5.3468 C.ar    
  92 C92          -47.9167    11.8232     7.5073 C.2     
  93 O93          -47.5803    12.7521     6.8038 O.2     
  94 N94          -45.5567    11.2597     7.5493 N.am    
  95 C95          -46.8819    10.8600     8.0292 C.3     
  96 C96          -46.8964    10.8754     9.5590 C.3     
  97 C97          -45.9355     9.8092    10.0889 C.3     
  98 C98          -45.9500     9.8247    11.6188 C.3     
  99 N99          -45.0300     8.8038    12.1262 N.pl3   
 100 C100         -44.8746     8.6308    13.4812 C.2     
 101 N101         -45.5459     9.3752    14.3144 N.2     
 102 N102         -44.0112     7.6728    13.9574 N.pl3   
 103 C103         -51.4166    12.5891     8.2335 C.2     
 104 O104         -51.4267    11.8772     9.2154 O.2     
 105 N105         -49.2160    11.6525     7.8223 N.am    
 106 C106         -50.2219    12.5889     7.3149 C.3     
 107 C107         -50.6571    12.1593     5.9124 C.3     
 108 C108         -49.4722    12.2786     4.9519 C.3     
 109 C109         -49.9073    11.8491     3.5494 C.3     
 110 C110         -48.7224    11.9683     2.5888 C.3     
 111 N111         -49.1403    11.5559     1.2422 N.3     
 112 C112         -54.8584    13.8122     8.0900 C.2     
 113 O113         -54.7690    14.0920     6.9134 O.2     
 114 N114         -52.4737    13.3804     7.9640 N.am    
 115 C115         -53.6351    13.3806     8.8570 C.3     
 116 C116         -53.3891    14.3519    10.0133 C.3     
 117 C117         -52.2235    13.8458    10.8654 C.3     
 118 C118         -51.8965    14.8775    11.9468 C.3     
 119 C119         -52.6116    12.5210    11.5251 C.3     
 120 C120         -57.3182    15.8117     7.9488 C.2     
 121 O121         -56.4670    16.4666     8.5024 O.2     
 122 N122         -56.0519    13.8872     8.7117 N.am    
 123 C123         -57.2411    14.3067     7.9662 C.3     
 124 C124         -58.4921    13.7398     8.6404 C.3     
 125 C125         -58.4472    12.2111     8.5956 C.3     
 126 C126         -59.6218    11.6428     9.3945 C.3     
 127 C127         -58.5430    11.7404     7.1430 C.3     
 128 O128         -58.3323    16.4246     7.3183 O.3     
 129 C129          -5.7592    11.3947    13.6063 C.2     
 130 O130          -5.3918    10.7755    14.5822 O.2     
 131 C131           7.1173    24.2838    17.9943 C.3     
 132 C132           6.4559    22.9502    18.3478 C.3     
 133 C133           5.3709    22.6302    17.3177 C.3     
 134 C134           4.7095    21.2966    17.6712 C.3     
 135 C135           3.6244    20.9765    16.6411 C.3     
 136 C136           2.9630    19.6429    16.9946 C.3     
 137 C137           1.8780    19.3229    15.9645 C.3     
 138 C138           1.2166    17.9893    16.3180 C.3     
 139 C139           0.1316    17.6692    15.2879 C.3     
 140 C140          -0.5298    16.3356    15.6414 C.3     
 141 C141          -1.6149    16.0156    14.6113 C.3     
 142 C142          -2.2763    14.6820    14.9648 C.3     
 143 C143          -3.3613    14.3619    13.9347 C.3     
 144 C144          -4.0227    13.0283    14.2882 C.3     
 145 C145          -5.1077    12.7083    13.2581 C.3     
 146 H146          -7.0439    11.4033    12.0525 H       
 147 H147          -6.6387     8.9574    13.5955 H       
 148 H148          -8.9082     8.9113    14.5123 H       
 149 H149          -8.7193    10.7770    16.1347 H       
 150 H150          -7.1385    10.0064    15.8604 H       
 151 H151          -7.5146    11.5652    15.0879 H       
 152 H152         -10.2696    10.8476    14.1909 H       
 153 H153          -8.6282     7.3397    12.8340 H       
 154 H154          -8.7352     7.5935     9.9180 H       
 155 H155          -9.7754     5.4557    11.8308 H       
 156 H156          -9.8671     5.3592    10.0558 H       
 157 H157          -8.4201     3.2862    10.8245 H       
 158 H158          -6.7632     3.5621    10.7915 H       
 159 H159         -11.1721     6.8400     9.0484 H       
 160 H160         -13.2685     8.0490    10.6827 H       
 161 H161         -12.4802     9.2181     7.9755 H       
 162 H162         -13.8989     9.6952     8.9388 H       
 163 H163         -12.2587    10.0120     9.5532 H       
 164 H164         -15.4258     8.0599     9.0675 H       
 165 H165         -15.8623     5.3445     8.4252 H       
 166 H166         -15.4696     6.2194     6.9257 H       
 167 H167         -18.0002     5.3034     6.7849 H       
 168 H168         -19.8417     7.1595     8.0853 H       
 169 H169         -20.7473     8.0126     5.9404 H       
 170 H170         -19.0374     8.4659     6.1372 H       
 171 H171         -19.4839     7.1258     5.0542 H       
 172 H172         -22.2173     6.6371     6.9251 H       
 173 H173         -22.3331     3.8638     6.0178 H       
 174 H174         -23.7675     3.1050     7.8508 H       
 175 H175         -22.2332     3.7067     8.5233 H       
 176 H176         -24.1231     4.6095     9.6716 H       
 177 H177         -25.0030     3.3346     5.9956 H       
 178 H178         -25.9391     5.5125     4.2751 H       
 179 H179         -27.0415     2.7299     4.8649 H       
 180 H180         -27.7701     3.8777     3.7160 H       
 181 H181         -25.5678     1.8984     1.5872 H       
 182 H182         -28.6117     5.7545     4.5228 H       
 183 H183         -29.3956     5.6931     7.3351 H       
 184 H184         -29.7901     8.1040     7.4939 H       
 185 H185         -27.4400     8.8942     7.4608 H       
 186 H186         -27.5527     7.2533     8.1411 H       
 187 H187         -26.9808     7.4873     6.4719 H       
 188 H188         -29.0676     9.4648     5.6686 H       
 189 H189         -31.7651     6.9762     7.3769 H       
 190 H190         -33.1363     6.6914     4.8145 H       
 191 H191         -33.7695     4.9079     7.2076 H       
 192 H192         -34.8075     5.0780     5.7717 H       
 193 H193         -32.9474     4.2903     4.3336 H       
 194 H194         -31.9093     4.1201     5.7695 H       
 195 H195         -33.4980     2.4720     6.7226 H       
 196 H196         -34.5360     2.6422     5.2867 H       
 197 H197         -31.9316     1.9679     4.4273 H       
 198 H198         -32.5365    -1.4727     4.4569 H       
 199 H199         -34.6523     0.6160     6.2339 H       
 200 H200         -34.3464    -0.9842     5.8231 H       
 201 H201         -35.7356     7.0569     5.4248 H       
 202 H202         -36.0117     8.7785     7.7673 H       
 203 H203         -36.2650     9.8479     4.9211 H       
 204 H204         -36.8082    10.7143     6.3780 H       
 205 H205         -34.4984    10.6500     7.2775 H       
 206 H206         -33.9552     9.7836     5.8206 H       
 207 H207         -32.5770    12.0879     6.0515 H       
 208 H208         -33.2027    13.3144     5.0888 H       
 209 H209         -38.4832     9.8235     7.5174 H       
 210 H210         -40.2254     8.0063     6.0376 H       
 211 H211         -40.2062     8.1224     9.0864 H       
 212 H212         -41.4879     7.3631     8.1123 H       
 213 H213         -39.8165     5.8328     7.1057 H       
 214 H214         -38.5348     6.5920     8.0798 H       
 215 H215         -38.6533     3.9627     8.6589 H       
 216 H216         -39.5295     3.6478    10.0574 H       
 217 H217         -42.7068     8.6947     6.8322 H       
 218 H218         -42.7950    11.5068     7.6145 H       
 219 H219         -43.6667    10.5575     4.8491 H       
 220 H220         -44.0584    12.1502     5.5404 H       
 221 H221         -41.3910    10.0024     4.2181 H       
 222 H222         -39.1989    10.8528     3.4899 H       
 223 H223         -38.3237    13.6757     2.9841 H       
 224 H224         -40.1398    14.6773     5.1492 H       
 225 H225         -42.3339    13.8219     5.8656 H       
 226 H226         -45.3857    12.1843     7.3109 H       
 227 H227         -47.1091     9.8549     7.6738 H       
 228 H228         -46.5828    11.8566     9.9155 H       
 229 H229         -47.9049    10.6648     9.9150 H       
 230 H230         -46.2491     8.8281     9.7325 H       
 231 H231         -44.9270    10.0198     9.7330 H       
 232 H232         -45.6364    10.8058    11.9752 H       
 233 H233         -46.9585     9.6141    11.9747 H       
 234 H234         -44.5304     8.2498    11.5061 H       
 235 H235         -45.4363     9.2531    15.2705 H       
 236 H236         -43.5116     7.1188    13.3373 H       
 237 H237         -43.9015     7.5507    14.9134 H       
 238 H238         -49.4850    10.9095     8.3849 H       
 239 H239         -49.7963    13.5914     7.2722 H       
 240 H240         -51.0004    11.1251     5.9393 H       
 241 H241         -51.4680    12.8026     5.5707 H       
 242 H242         -49.1289    13.3128     4.9250 H       
 243 H243         -48.6613    11.6354     5.2936 H       
 244 H244         -50.2506    10.8149     3.5762 H       
 245 H245         -50.7183    12.4923     3.2076 H       
 246 H246         -48.3792    13.0025     2.5619 H       
 247 H247         -47.9115    11.3251     2.9306 H       
 248 H248         -48.3746    11.6258     0.5888 H       
 249 H249         -49.5229    10.6223     1.2524 H       
 250 H250         -52.4656    13.9498     7.1788 H       
 251 H251         -53.7896    12.3767     9.2524 H       
 252 H252         -53.1470    15.3372     9.6150 H       
 253 H253         -54.2865    14.4192    10.6284 H       
 254 H254         -51.3495    13.6939    10.2319 H       
 255 H255         -52.7705    15.0294    12.5802 H       
 256 H256         -51.0661    14.5169    12.5538 H       
 257 H257         -51.6200    15.8213    11.4767 H       
 258 H258         -52.8445    11.7859    10.7547 H       
 259 H259         -51.7811    12.1604    12.1321 H       
 260 H260         -53.4855    12.6729    12.1585 H       
 261 H261         -56.1234    13.6634     9.6529 H       
 262 H262         -57.1790    13.9343     6.9436 H       
 263 H263         -58.5279    14.0720     9.6779 H       
 264 H264         -59.3796    14.0927     8.1150 H       
 265 H265         -57.5101    11.8623     9.0295 H       
 266 H266         -59.6405    10.5579     9.2909 H       
 267 H267         -59.5069    11.9054    10.4461 H       
 268 H268         -60.5547    12.0601     9.0155 H       
 269 H269         -57.7062    12.1453     6.5739 H       
 270 H270         -58.5110    10.6513     7.1111 H       
 271 H271         -59.4801    12.0892     6.7091 H       
 272 H272         -58.3390    17.3914     7.3343 H       
 273 H273           7.8903    24.5119    18.7282 H       
 274 H274           7.5660    24.2155    17.0033 H       
 275 H275           6.3668    25.0743    17.9996 H       
 276 H276           7.2064    22.1598    18.3425 H       
 277 H277           6.0072    23.0186    19.3388 H       
 278 H278           4.6204    23.4206    17.3230 H       
 279 H279           5.8195    22.5618    16.3267 H       
 280 H280           5.4600    20.5061    17.6659 H       
 281 H281           4.2608    21.3650    18.6622 H       
 282 H282           2.8739    21.7670    16.6464 H       
 283 H283           4.0731    20.9082    15.6501 H       
 284 H284           3.7136    18.8525    16.9893 H       
 285 H285           2.5144    19.7113    17.9856 H       
 286 H286           1.1275    20.1133    15.9698 H       
 287 H287           2.3267    19.2545    14.9735 H       
 288 H288           1.9671    17.1988    16.3127 H       
 289 H289           0.7679    18.0576    17.3090 H       
 290 H290          -0.6190    18.4597    15.2932 H       
 291 H291           0.5802    17.6009    14.2969 H       
 292 H292           0.2207    15.5452    15.6361 H       
 293 H293          -0.9785    16.4040    16.6324 H       
 294 H294          -2.3654    16.8060    14.6166 H       
 295 H295          -1.1662    15.9472    13.6203 H       
 296 H296          -1.5257    13.8915    14.9595 H       
 297 H297          -2.7249    14.7503    15.9558 H       
 298 H298          -4.1118    15.1524    13.9400 H       
 299 H299          -2.9126    14.2936    12.9437 H       
 300 H300          -3.2722    12.2379    14.2829 H       
 301 H301          -4.4714    13.0967    15.2792 H       
 302 H302          -4.6591    12.6399    12.2671 H       
 303 H303          -5.8583    13.4987    13.2634 H       
@<TRIPOS>BOND
   1    1    2 2
   2    1    4 1
   3    1   10 am
   4    3  129 am
   5    3    4 1
   6    3  146 1
   7    4    5 1
   8    4  147 1
   9    5    6 1
  10    5    7 1
  11    5  148 1
  12    6  149 1
  13    6  150 1
  14    6  151 1
  15    7  152 1
  16    8    9 2
  17    8   11 1
  18    8   18 am
  19   10   11 1
  20   10  153 1
  21   11   12 1
  22   11  154 1
  23   12   13 1
  24   12  155 1
  25   12  156 1
  26   13   14 2
  27   13   15 am
  28   15  157 1
  29   15  158 1
  30   16   17 2
  31   16   19 1
  32   16   23 am
  33   18   19 1
  34   18  159 1
  35   19   20 1
  36   19  160 1
  37   20  161 1
  38   20  162 1
  39   20  163 1
  40   21   22 2
  41   21   24 1
  42   21   27 am
  43   23   24 1
  44   23  164 1
  45   24  165 1
  46   24  166 1
  47   25   26 2
  48   25   28 1
  49   25   32 am
  50   27   28 1
  51   27  167 1
  52   28   29 1
  53   28  168 1
  54   29  169 1
  55   29  170 1
  56   29  171 1
  57   30   31 2
  58   30   33 1
  59   30   38 am
  60   32   33 1
  61   32  172 1
  62   33   34 1
  63   33  173 1
  64   34   35 1
  65   34  174 1
  66   34  175 1
  67   35  176 1
  68   36   37 2
  69   36   39 1
  70   36   46 am
  71   38   39 1
  72   38  177 1
  73   39   40 1
  74   39  178 1
  75   40   41 1
  76   40  179 1
  77   40  180 1
  78   41   42 2
  79   41   43 1
  80   43  181 1
  81   44   45 2
  82   44   47 1
  83   44   53 am
  84   46   47 1
  85   46  182 1
  86   47   48 1
  87   47  183 1
  88   48   49 1
  89   48   50 1
  90   48  184 1
  91   49  185 1
  92   49  186 1
  93   49  187 1
  94   50  188 1
  95   51   52 2
  96   51   54 1
  97   51   64 am
  98   53   54 1
  99   53  189 1
 100   54   55 1
 101   54  190 1
 102   55   56 1
 103   55  191 1
 104   55  192 1
 105   56   57 1
 106   56  193 1
 107   56  194 1
 108   57   58 1
 109   57  195 1
 110   57  196 1
 111   58   59 1
 112   58  197 1
 113   59   60 2
 114   59   61 1
 115   60  198 1
 116   61  199 1
 117   61  200 1
 118   62   63 2
 119   62   65 1
 120   62   73 am
 121   64   65 1
 122   64  201 1
 123   65   66 1
 124   65  202 1
 125   66   67 1
 126   66  203 1
 127   66  204 1
 128   67   68 1
 129   67  205 1
 130   67  206 1
 131   68   69 2
 132   68   70 am
 133   70  207 1
 134   70  208 1
 135   71   72 2
 136   71   74 1
 137   71   82 am
 138   73   74 1
 139   73  209 1
 140   74   75 1
 141   74  210 1
 142   75   76 1
 143   75  211 1
 144   75  212 1
 145   76   77 1
 146   76  213 1
 147   76  214 1
 148   77   78 2
 149   77   79 am
 150   79  215 1
 151   79  216 1
 152   80   81 2
 153   80   83 1
 154   80   94 am
 155   82   83 1
 156   82  217 1
 157   83   84 1
 158   83  218 1
 159   84   85 1
 160   84  219 1
 161   84  220 1
 162   85   86 ar
 163   85   91 ar
 164   86   87 ar
 165   86  221 1
 166   87   88 ar
 167   87  222 1
 168   88   89 1
 169   88   90 ar
 170   89  223 1
 171   90   91 ar
 172   90  224 1
 173   91  225 1
 174   92   93 2
 175   92   95 1
 176   92  105 am
 177   94   95 1
 178   94  226 1
 179   95   96 1
 180   95  227 1
 181   96   97 1
 182   96  228 1
 183   96  229 1
 184   97   98 1
 185   97  230 1
 186   97  231 1
 187   98   99 1
 188   98  232 1
 189   98  233 1
 190   99  100 1
 191   99  234 1
 192  100  101 2
 193  100  102 1
 194  101  235 1
 195  102  236 1
 196  102  237 1
 197  103  104 2
 198  103  106 1
 199  103  114 am
 200  105  106 1
 201  105  238 1
 202  106  107 1
 203  106  239 1
 204  107  108 1
 205  107  240 1
 206  107  241 1
 207  108  109 1
 208  108  242 1
 209  108  243 1
 210  109  110 1
 211  109  244 1
 212  109  245 1
 213  110  111 1
 214  110  246 1
 215  110  247 1
 216  111  248 1
 217  111  249 1
 218  112  113 2
 219  112  115 1
 220  112  122 am
 221  114  115 1
 222  114  250 1
 223  115  116 1
 224  115  251 1
 225  116  117 1
 226  116  252 1
 227  116  253 1
 228  117  118 1
 229  117  119 1
 230  117  254 1
 231  118  255 1
 232  118  256 1
 233  118  257 1
 234  119  258 1
 235  119  259 1
 236  119  260 1
 237  120  121 2
 238  120  123 1
 239  120  128 1
 240  122  123 1
 241  122  261 1
 242  123  124 1
 243  123  262 1
 244  124  125 1
 245  124  263 1
 246  124  264 1
 247  125  126 1
 248  125  127 1
 249  125  265 1
 250  126  266 1
 251  126  267 1
 252  126  268 1
 253  127  269 1
 254  127  270 1
 255  127  271 1
 256  128  272 1
 257  129  130 2
 258  129  145 1
 259  131  132 1
 260  131  273 1
 261  131  274 1
 262  131  275 1
 263  132  133 1
 264  132  276 1
 265  132  277 1
 266  133  134 1
 267  133  278 1
 268  133  279 1
 269  134  135 1
 270  134  280 1
 271  134  281 1
 272  135  136 1
 273  135  282 1
 274  135  283 1
 275  136  137 1
 276  136  284 1
 277  136  285 1
 278  137  138 1
 279  137  286 1
 280  137  287 1
 281  138  139 1
 282  138  288 1
 283  138  289 1
 284  139  140 1
 285  139  290 1
 286  139  291 1
 287  140  141 1
 288  140  292 1
 289  140  293 1
 290  141  142 1
 291  141  294 1
 292  141  295 1
 293  142  143 1
 294  142  296 1
 295  142  297 1
 296  143  144 1
 297  143  298 1
 298  143  299 1
 299  144  145 1
 300  144  300 1
 301  144  301 1
 302  145  302 1
 303  145  303 1

#	End of record

