#	Name: ASD04880809
#	Creating user name:	WinNT
#	Creation time:	15. 06. 2019 20:53

#	Modifying user name:	WinNT
#	Modification time:	15. 06. 2019 20:53

#	Program:	/corina/corina34_cracker 3.40 0067  02.08.2006

@<TRIPOS>MOLECULE
ASD04880809
  71   75    0    0    0
SMALL
NO_CHARGES


@<TRIPOS>ATOM
   1 N1             1.6884     0.3342     1.6091 N.3     
   2 C2             2.2133     1.4203     0.7698 C.3     
   3 C3             3.0421     0.8249    -0.3708 C.3     
   4 N4             2.2017    -0.0871    -1.1593 N.3     
   5 C5             1.6768    -1.1731    -0.3200 C.3     
   6 C6             0.8480    -0.5777     0.8206 C.3     
   7 C7             2.9028    -0.5939    -2.2504 C.ar    
   8 C8             3.2097    -1.9481    -2.3098 C.ar    
   9 C9             3.9035    -2.4538    -3.3872 C.ar    
  10 C10            4.3010    -1.6057    -4.4241 C.ar    
  11 C11            3.9932    -0.2431    -4.3671 C.ar    
  12 C12            3.2921     0.2591    -3.2874 C.ar    
  13 N13            2.9768     1.6228    -3.2293 N.am    
  14 C14            5.0449    -2.1473    -5.5773 C.2     
  15 C15            3.8309     2.5342    -3.7355 C.2     
  16 O16            4.8348     2.1692    -4.3189 O.2     
  17 C17            3.5508     3.9654    -3.5834 C.2     
  18 O18            2.4803     4.5020    -2.9619 O.3     
  19 C19            2.5577     5.8380    -3.0171 C.2     
  20 C20            3.6850     6.1813    -3.6784 C.2     
  21 C21            4.3307     4.9888    -4.0408 C.2     
  22 C22            0.9851     0.8426     2.7036 C.ar    
  23 C23           -0.3872     0.6486     2.8004 C.ar    
  24 C24           -1.0793     1.1522     3.8840 C.ar    
  25 C25           -0.4080     1.8495     4.8720 C.ar    
  26 C26            0.9577     2.0443     4.7787 C.ar    
  27 C27            1.6570     1.5384     3.7004 C.ar    
  28 C28            3.1465     1.7459     3.6026 C.3     
  29 N29            5.3415    -3.4609    -5.6311 N.am    
  30 O30            5.3904    -1.4086    -6.4792 O.2     
  31 C31            6.0802    -3.9988    -6.7762 C.3     
  32 C32            6.8039    -5.2542    -6.3624 C.ar    
  33 C33            5.1022    -4.3232    -7.9072 C.3     
  34 C34            8.0844    -5.4975    -6.8230 C.ar    
  35 C35            8.7482    -6.6491    -6.4434 C.ar    
  36 C36            8.1318    -7.5571    -5.6029 C.ar    
  37 C37            6.8517    -7.3133    -5.1416 C.ar    
  38 C38            6.1895    -6.1596    -5.5176 C.ar    
  39 O39            4.2277    -5.3750    -7.4937 O.3     
  40 H40            1.3837     1.9933     0.3557 H       
  41 H41            2.8424     2.0747     1.3732 H       
  42 H42            3.4085     1.6271    -1.0114 H       
  43 H43            3.8873     0.2745     0.0426 H       
  44 H44            1.0477    -1.8275    -0.9234 H       
  45 H45            2.5064    -1.7462     0.0941 H       
  46 H46            0.4816    -1.3800     1.4612 H       
  47 H47            0.0028    -0.0274     0.4072 H       
  48 H48            2.9038    -2.6055    -1.5093 H       
  49 H49            4.1408    -3.5065    -3.4302 H       
  50 H50            4.2995     0.4148    -5.1669 H       
  51 H51            2.1437     1.9111    -2.8246 H       
  52 H52            1.8374     6.5274    -2.6020 H       
  53 H53            4.0267     7.1845    -3.8861 H       
  54 H54            5.2626     4.8982    -4.5791 H       
  55 H55           -0.9121     0.1049     2.0290 H       
  56 H56           -2.1460     1.0017     3.9599 H       
  57 H57           -0.9518     2.2429     5.7181 H       
  58 H58            1.4788     2.5893     5.5519 H       
  59 H59            3.3491     2.7163     3.1495 H       
  60 H60            3.5842     1.7122     4.6003 H       
  61 H61            3.5833     0.9593     2.9874 H       
  62 H62            5.0659    -4.0503    -4.9116 H       
  63 H63            6.8031    -3.2598    -7.1218 H       
  64 H64            4.5158    -3.4360    -8.1461 H       
  65 H65            5.6589    -4.6392    -8.7894 H       
  66 H66            8.5659    -4.7882    -7.4797 H       
  67 H67            9.7483    -6.8396    -6.8039 H       
  68 H68            8.6502    -8.4571    -5.3069 H       
  69 H69            6.3700    -8.0228    -4.4851 H       
  70 H70            5.1908    -5.9673    -5.1542 H       
  71 H71            3.5792    -5.6333    -8.1629 H       
@<TRIPOS>BOND
   1    1    2 1
   2    1    6 1
   3    1   22 1
   4    2    3 1
   5    2   40 1
   6    2   41 1
   7    3    4 1
   8    3   42 1
   9    3   43 1
  10    4    5 1
  11    4    7 1
  12    5    6 1
  13    5   44 1
  14    5   45 1
  15    6   46 1
  16    6   47 1
  17    7    8 ar
  18    7   12 ar
  19    8    9 ar
  20    8   48 1
  21    9   10 ar
  22    9   49 1
  23   10   11 ar
  24   10   14 1
  25   11   12 ar
  26   11   50 1
  27   12   13 1
  28   13   15 am
  29   13   51 1
  30   14   29 am
  31   14   30 2
  32   15   16 2
  33   15   17 1
  34   17   18 1
  35   17   21 2
  36   18   19 1
  37   19   20 2
  38   19   52 1
  39   20   21 1
  40   20   53 1
  41   21   54 1
  42   22   23 ar
  43   22   27 ar
  44   23   24 ar
  45   23   55 1
  46   24   25 ar
  47   24   56 1
  48   25   26 ar
  49   25   57 1
  50   26   27 ar
  51   26   58 1
  52   27   28 1
  53   28   59 1
  54   28   60 1
  55   28   61 1
  56   29   31 1
  57   29   62 1
  58   31   32 1
  59   31   33 1
  60   31   63 1
  61   32   34 ar
  62   32   38 ar
  63   33   39 1
  64   33   64 1
  65   33   65 1
  66   34   35 ar
  67   34   66 1
  68   35   36 ar
  69   35   67 1
  70   36   37 ar
  71   36   68 1
  72   37   38 ar
  73   37   69 1
  74   38   70 1
  75   39   71 1

#	End of record

