#	Name: ASD01200153
#	Creating user name:	WinNT
#	Creation time:	15. 06. 2019 19:08

#	Modifying user name:	WinNT
#	Modification time:	15. 06. 2019 19:08

#	Program:	/corina/corina34_cracker 3.40 0067  02.08.2006

@<TRIPOS>MOLECULE
ASD01200153
  43   45    0    0    0
SMALL
NO_CHARGES


@<TRIPOS>ATOM
   1 C1             0.6570     2.1893    -0.1657 C.ar    
   2 C2             0.3934     0.8312    -0.1609 C.ar    
   3 C3             1.4350    -0.0803    -0.1078 C.ar    
   4 C4             2.7354     0.3648    -0.0597 C.ar    
   5 C5             3.0130     1.7341    -0.0641 C.ar    
   6 C6             4.0672    -0.3401     0.0033 C.3     
   7 N7             5.0884     0.7131     0.0333 N.am    
   8 C8             4.4768     1.9095    -0.0057 C.2     
   9 O9             5.0480     2.9824     0.0055 O.2     
  10 O10            4.1466    -1.1349     1.1883 O.3     
  11 C11            6.5360     0.4965     0.0960 C.3     
  12 C12            7.0876     0.3240    -1.3207 C.3     
  13 C13            3.9286    -0.4018     2.3955 C.3     
  14 C14            4.1594    -1.3044     3.5799 C.2     
  15 O15            4.4791    -2.4616     3.4074 O.2     
  16 N16            4.0106    -0.8258     4.8310 N.am    
  17 C17            8.5994     0.0978    -1.2552 C.3     
  18 C18            1.9580     2.6465    -0.1177 C.ar    
  19 C19            9.1510    -0.0748    -2.6719 C.3     
  20 C20            4.2235    -1.6584     5.9236 C.2     
  21 N21            4.1078    -1.3000     7.1639 N.2     
  22 C22            4.3478    -2.2221     8.0772 C.2     
  23 C23            4.6822    -3.4166     7.5852 C.2     
  24 S24            4.6690    -3.3062     5.8270 S.3     
  25 H25           -0.1592     2.8950    -0.2117 H       
  26 H26           -0.6275     0.4808    -0.1983 H       
  27 H27            1.2261    -1.1399    -0.1039 H       
  28 H28            4.2014    -0.9669    -0.8783 H       
  29 H29            7.0118     1.3556     0.5690 H       
  30 H30            6.7442    -0.4008     0.6788 H       
  31 H31            6.6118    -0.5351    -1.7937 H       
  32 H32            6.8794     1.2212    -1.9035 H       
  33 H33            4.6202     0.4395     2.4395 H       
  34 H34            2.9038    -0.0311     2.4154 H       
  35 H35            3.7549     0.0996     4.9691 H       
  36 H36            9.0752     0.9568    -0.7822 H       
  37 H37            8.8076    -0.7995    -0.6724 H       
  38 H38            2.1595     3.7075    -0.1220 H       
  39 H39            8.6752    -0.9338    -3.1449 H       
  40 H40            8.9428     0.8225    -3.2547 H       
  41 H41           10.2280    -0.2359    -2.6253 H       
  42 H42            4.2791    -2.0258     9.1370 H       
  43 H43            4.9158    -4.2981     8.1637 H       
@<TRIPOS>BOND
   1    1    2 ar
   2    1   18 ar
   3    1   25 1
   4    2    3 ar
   5    2   26 1
   6    3    4 ar
   7    3   27 1
   8    4    5 ar
   9    4    6 1
  10    5   18 ar
  11    5    8 1
  12    6    7 1
  13    6   10 1
  14    6   28 1
  15    7    8 am
  16    7   11 1
  17    8    9 2
  18   10   13 1
  19   11   12 1
  20   11   29 1
  21   11   30 1
  22   12   17 1
  23   12   31 1
  24   12   32 1
  25   13   14 1
  26   13   33 1
  27   13   34 1
  28   14   15 2
  29   14   16 am
  30   16   20 1
  31   16   35 1
  32   17   19 1
  33   17   36 1
  34   17   37 1
  35   18   38 1
  36   19   39 1
  37   19   40 1
  38   19   41 1
  39   20   21 2
  40   20   24 1
  41   21   22 1
  42   22   23 2
  43   22   42 1
  44   23   24 1
  45   23   43 1

#	End of record

