#	Name: ASD05060075
#	Creating user name:	WinNT
#	Creation time:	15. 06. 2019 20:56

#	Modifying user name:	WinNT
#	Modification time:	15. 06. 2019 20:56

#	Program:	/corina/corina34_cracker 3.40 0067  02.08.2006

@<TRIPOS>MOLECULE
ASD05060075
  22   23    0    0    0
SMALL
NO_CHARGES


@<TRIPOS>ATOM
   1 C1            -0.0166     1.3754     0.0096 C.ar    
   2 C2             0.0021    -0.0041     0.0020 C.ar    
   3 C3             1.2218    -0.6822    -0.0132 C.ar    
   4 C4             2.4154     0.0410    -0.0207 C.ar    
   5 C5             2.3827     1.4202    -0.0130 C.ar    
   6 C6             1.1702     2.0864     0.0021 C.ar    
   7 C7             1.2493    -2.1604    -0.0210 C.2     
   8 C8             2.3582    -2.9619    -0.0358 C.2     
   9 C9             1.8305    -4.2695    -0.0372 C.2     
  10 N10            0.5336    -4.1473    -0.0240 N.2     
  11 O11            0.1895    -2.9884    -0.0089 O.3     
  12 C12            2.6138    -5.5568    -0.0513 C.3     
  13 O13            4.0123    -5.2634    -0.0634 O.3     
  14 H14           -0.9598     1.9014     0.0169 H       
  15 H15           -0.9251    -0.5579     0.0082 H       
  16 H16            3.3625    -0.4779    -0.0322 H       
  17 H17            3.3056     1.9811    -0.0188 H       
  18 H18            1.1501     3.1662     0.0081 H       
  19 H19            3.3959    -2.6627    -0.0443 H       
  20 H20            2.3723    -6.1388     0.8381 H       
  21 H21            2.3551    -6.1298    -0.9418 H       
  22 H22            4.5786    -6.0472    -0.0729 H       
@<TRIPOS>BOND
   1    1    2 ar
   2    1    6 ar
   3    1   14 1
   4    2    3 ar
   5    2   15 1
   6    3    4 ar
   7    3    7 1
   8    4    5 ar
   9    4   16 1
  10    5    6 ar
  11    5   17 1
  12    6   18 1
  13    7    8 2
  14    7   11 1
  15    8    9 1
  16    8   19 1
  17    9   10 2
  18    9   12 1
  19   10   11 1
  20   12   13 1
  21   12   20 1
  22   12   21 1
  23   13   22 1

#	End of record

