#	Name: ASD02030395
#	Creating user name:	WinNT
#	Creation time:	15. 06. 2019 20:15

#	Modifying user name:	WinNT
#	Modification time:	15. 06. 2019 20:15

#	Program:	/corina/corina34_cracker 3.40 0067  02.08.2006

@<TRIPOS>MOLECULE
ASD02030395
  28   28    0    0    0
SMALL
NO_CHARGES


@<TRIPOS>ATOM
   1 C1            -0.0180     1.4730     0.0101 C.2     
   2 C2             0.0021    -0.0041     0.0020 C.ar    
   3 C3             1.2190    -0.6889    -0.0133 C.ar    
   4 C4             1.2304    -2.0681    -0.0203 C.ar    
   5 C5             0.0396    -2.7731    -0.0127 C.ar    
   6 C6            -1.1695    -2.1010     0.0020 C.ar    
   7 C7            -1.1954    -0.7216     0.0154 C.ar    
   8 O8             1.0256     2.0946     0.0035 O.2     
   9 O9            -1.1936     2.1307     0.0193 O.3     
  10 C10            2.5427    -2.8089    -0.0368 C.3     
  11 C11            2.8774    -3.2849     1.3782 C.3     
  12 O12            2.4416    -3.9375    -0.9076 O.3     
  13 C13            3.6743    -4.3025    -1.5315 C.3     
  14 C14           -1.1373     3.5816     0.0269 C.3     
  15 H15            2.1490    -0.1399    -0.0199 H       
  16 H16            0.0543    -3.8530    -0.0186 H       
  17 H17           -2.0952    -2.6573     0.0071 H       
  18 H18           -2.1399    -0.1982     0.0318 H       
  19 H19            3.3304    -2.1449    -0.3927 H       
  20 H20            2.9545    -2.4241     2.0424 H       
  21 H21            2.0897    -3.9490     1.7340 H       
  22 H22            3.8265    -3.8208     1.3663 H       
  23 H23            4.0406    -3.4673    -2.1286 H       
  24 H24            4.4091    -4.5517    -0.7660 H       
  25 H25            3.5135    -5.1668    -2.1758 H       
  26 H26           -0.6055     3.9199     0.9162 H       
  27 H27           -0.6140     3.9295    -0.8637 H       
  28 H28           -2.1501     3.9844     0.0339 H       
@<TRIPOS>BOND
   1    1    2 1
   2    1    8 2
   3    1    9 1
   4    2    3 ar
   5    2    7 ar
   6    3    4 ar
   7    3   15 1
   8    4    5 ar
   9    4   10 1
  10    5    6 ar
  11    5   16 1
  12    6    7 ar
  13    6   17 1
  14    7   18 1
  15    9   14 1
  16   10   11 1
  17   10   12 1
  18   10   19 1
  19   11   20 1
  20   11   21 1
  21   11   22 1
  22   12   13 1
  23   13   23 1
  24   13   24 1
  25   13   25 1
  26   14   26 1
  27   14   27 1
  28   14   28 1

#	End of record

