#	Name: ASD03740182
#	Creating user name:	WinNT
#	Creation time:	15. 06. 2019 20:46

#	Modifying user name:	WinNT
#	Modification time:	15. 06. 2019 20:46

#	Program:	/corina/corina34_cracker 3.40 0067  02.08.2006

@<TRIPOS>MOLECULE
ASD03740182
  53   56    0    0    0
SMALL
NO_CHARGES


@<TRIPOS>ATOM
   1 C1            -0.0266     1.4483    -0.6600 C.ar    
   2 C2            -0.0114     0.0821    -0.9146 C.ar    
   3 C3            -1.1772    -0.6217    -1.0259 C.ar    
   4 C4            -2.3983     0.0324    -0.8829 C.ar    
   5 C5            -2.4157     1.4165    -0.6245 C.ar    
   6 C6            -1.2097     2.1146    -0.5097 C.ar    
   7 N7            -3.7055    -0.3769    -0.9361 N.pl3   
   8 N8            -4.5404     0.7234    -0.7161 N.2     
   9 C9            -3.8243     1.7984    -0.5283 C.2     
  10 O10           -4.3018     3.0479    -0.2861 O.3     
  11 C11           -4.1564    -1.7486    -1.1839 C.3     
  12 C12           -4.2862    -2.4794     0.1276 C.ar    
  13 C13           -5.4848    -2.4558     0.8160 C.ar    
  14 C14           -5.6045    -3.1258     2.0189 C.ar    
  15 C15           -4.5244    -3.8203     2.5341 C.ar    
  16 C16           -3.3251    -3.8435     1.8447 C.ar    
  17 C17           -3.2083    -3.1777     0.6391 C.ar    
  18 C18           -5.7216     3.2007    -0.2322 C.3     
  19 C19           -6.0667     4.6647     0.0478 C.3     
  20 Cl20          -4.6738    -4.6616     4.0452 Cl      
  21 C21           -7.5868     4.8283     0.1055 C.3     
  22 N22           -7.9213     6.2526     0.2384 N.3     
  23 C23           -7.2544     6.8457     1.4171 C.3     
  24 C24           -9.3768     6.4427     0.3773 C.3     
  25 C25           -9.6138     7.2115     1.6942 C.3     
  26 C26           -8.2507     7.9097     1.9414 C.3     
  27 C27           -5.9366     7.5061     1.0072 C.3     
  28 Br28           1.6054     2.3921    -0.5126 Br      
  29 H29            0.9332    -0.4294    -1.0262 H       
  30 H30           -1.1517    -1.6829    -1.2246 H       
  31 H31           -1.2136     3.1762    -0.3116 H       
  32 H32           -5.1238    -1.7280    -1.6857 H       
  33 H33           -3.4305    -2.2611    -1.8152 H       
  34 H34           -6.3277    -1.9134     0.4139 H       
  35 H35           -6.5408    -3.1070     2.5568 H       
  36 H36           -2.4816    -4.3854     2.2463 H       
  37 H37           -2.2722    -3.1958     0.1008 H       
  38 H38           -6.1557     2.9010    -1.1860 H       
  39 H39           -6.1245     2.5739     0.5633 H       
  40 H40           -5.6325     4.9644     1.0016 H       
  41 H41           -5.6637     5.2915    -0.7478 H       
  42 H42           -8.0296     4.4350    -0.8096 H       
  43 H43           -7.9788     4.2815     0.9631 H       
  44 H44           -7.0763     6.0836     2.1758 H       
  45 H45           -9.7570     7.0223    -0.4640 H       
  46 H46           -9.8751     5.4742     0.4185 H       
  47 H47          -10.4078     7.9484     1.5727 H       
  48 H48           -9.8468     6.5226     2.5060 H       
  49 H49           -8.0961     8.0994     3.0036 H       
  50 H50           -8.1747     8.8326     1.3665 H       
  51 H51           -6.1352     8.2920     0.2786 H       
  52 H52           -5.4579     7.9380     1.8861 H       
  53 H53           -5.2777     6.7587     0.5650 H       
@<TRIPOS>BOND
   1    1    2 ar
   2    1   28 1
   3    1    6 ar
   4    2    3 ar
   5    2   29 1
   6    3    4 ar
   7    3   30 1
   8    4    5 ar
   9    4    7 1
  10    5    6 ar
  11    5    9 1
  12    6   31 1
  13    7    8 1
  14    7   11 1
  15    8    9 2
  16    9   10 1
  17   10   18 1
  18   11   12 1
  19   11   32 1
  20   11   33 1
  21   12   13 ar
  22   12   17 ar
  23   13   14 ar
  24   13   34 1
  25   14   15 ar
  26   14   35 1
  27   15   16 ar
  28   15   20 1
  29   16   17 ar
  30   16   36 1
  31   17   37 1
  32   18   19 1
  33   18   38 1
  34   18   39 1
  35   19   21 1
  36   19   40 1
  37   19   41 1
  38   21   22 1
  39   21   42 1
  40   21   43 1
  41   22   24 1
  42   22   23 1
  43   23   27 1
  44   23   26 1
  45   23   44 1
  46   24   25 1
  47   24   45 1
  48   24   46 1
  49   25   26 1
  50   25   47 1
  51   25   48 1
  52   26   49 1
  53   26   50 1
  54   27   51 1
  55   27   52 1
  56   27   53 1

#	End of record

