#	Name: ASD02560524
#	Creating user name:	WinNT
#	Creation time:	15. 06. 2019 20:25

#	Modifying user name:	WinNT
#	Modification time:	15. 06. 2019 20:25

#	Program:	/corina/corina34_cracker 3.40 0067  02.08.2006

@<TRIPOS>MOLECULE
ASD02560524
  56   60    0    0    0
SMALL
NO_CHARGES


@<TRIPOS>ATOM
   1 C1             0.1112     1.9891     0.2612 C.2     
   2 C2            -0.0284     0.5807     0.2173 C.2     
   3 C3             1.0748    -0.2125     0.1772 C.2     
   4 N4             2.3261     0.3390     0.1788 N.pl3   
   5 C5             2.4869     1.7052     0.2210 C.2     
   6 C6             1.3502     2.5423     0.2630 C.2     
   7 C7             3.5755    -0.2171     0.1445 C.2     
   8 C8             4.4771     0.8261     0.1666 C.2     
   9 N9             3.7815     1.9771     0.2130 N.2     
  10 C10            5.9532     0.7014     0.1438 C.ar    
  11 N11            3.8791    -1.5779     0.0971 N.3     
  12 C12            2.6705    -2.3935     0.2761 C.3     
  13 C13            6.5924    -0.2042     0.9894 C.ar    
  14 C14            6.7094     1.4861    -0.7286 C.ar    
  15 C15            1.9731    -2.5750    -1.0736 C.3     
  16 C16            3.0579    -3.7627     0.8383 C.3     
  17 C17            1.7991    -4.6122     1.0247 C.3     
  18 C18            1.1017    -4.7937    -0.3250 C.3     
  19 C19            0.7144    -3.4244    -0.8871 C.3     
  20 C20            7.9679    -0.3159     0.9637 C.ar    
  21 C21            8.7127     0.4683     0.1014 C.ar    
  22 C22            8.0847     1.3650    -0.7447 C.ar    
  23 Cl23           5.9225     2.6111    -1.7910 Cl      
  24 C24           -1.3807    -0.0301     0.2156 C.ar    
  25 C25           -1.8740    -0.6398     1.3672 C.ar    
  26 C26           -3.1326    -1.2065     1.3599 C.ar    
  27 C27           -3.9037    -1.1698     0.2124 C.ar    
  28 C28           -3.4187    -0.5662    -0.9341 C.ar    
  29 C29           -2.1643     0.0090    -0.9363 C.ar    
  30 C30           -1.6373     0.6662    -2.1858 C.3     
  31 H31           -0.7646     2.6204     0.2885 H       
  32 H32            0.9622    -1.2861     0.1442 H       
  33 H33            1.4663     3.6156     0.2959 H       
  34 H34            4.3501    -1.8135    -0.7635 H       
  35 H35            1.9945    -1.8939     0.9701 H       
  36 H36            6.0124    -0.8169     1.6636 H       
  37 H37            1.6972    -1.5995    -1.4740 H       
  38 H38            2.6491    -3.0746    -1.7675 H       
  39 H39            3.7338    -4.2624     0.1443 H       
  40 H40            3.5547    -3.6334     1.7998 H       
  41 H41            2.0751    -5.5877     1.4252 H       
  42 H42            1.1231    -4.1126     1.7186 H       
  43 H43            1.7777    -5.2933    -1.0189 H       
  44 H44            0.2050    -5.3989    -0.1921 H       
  45 H45            0.0384    -2.9248    -0.1932 H       
  46 H46            0.2176    -3.5538    -1.8486 H       
  47 H47            8.4638    -1.0169     1.6188 H       
  48 H48            9.7887     0.3769     0.0852 H       
  49 H49            8.6717     1.9745    -1.4158 H       
  50 H50           -1.2725    -0.6693     2.2637 H       
  51 H51           -3.5159    -1.6796     2.2519 H       
  52 H52           -4.8879    -1.6144     0.2111 H       
  53 H53           -4.0249    -0.5407    -1.8276 H       
  54 H54           -1.9198     1.7189    -2.1894 H       
  55 H55           -0.5509     0.5814    -2.2105 H       
  56 H56           -2.0601     0.1736    -3.0614 H       
@<TRIPOS>BOND
   1    1    2 1
   2    1    6 2
   3    1   31 1
   4    2    3 2
   5    2   24 1
   6    3    4 1
   7    3   32 1
   8    4    5 1
   9    4    7 1
  10    5    6 1
  11    5    9 2
  12    6   33 1
  13    7    8 2
  14    7   11 1
  15    8    9 1
  16    8   10 1
  17   10   13 ar
  18   10   14 ar
  19   11   12 1
  20   11   34 1
  21   12   16 1
  22   12   15 1
  23   12   35 1
  24   13   20 ar
  25   13   36 1
  26   14   23 1
  27   14   22 ar
  28   15   19 1
  29   15   37 1
  30   15   38 1
  31   16   17 1
  32   16   39 1
  33   16   40 1
  34   17   18 1
  35   17   41 1
  36   17   42 1
  37   18   19 1
  38   18   43 1
  39   18   44 1
  40   19   45 1
  41   19   46 1
  42   20   21 ar
  43   20   47 1
  44   21   22 ar
  45   21   48 1
  46   22   49 1
  47   24   25 ar
  48   24   29 ar
  49   25   26 ar
  50   25   50 1
  51   26   27 ar
  52   26   51 1
  53   27   28 ar
  54   27   52 1
  55   28   29 ar
  56   28   53 1
  57   29   30 1
  58   30   54 1
  59   30   55 1
  60   30   56 1

#	End of record

