#	Name: ASD04500012
#	Creating user name:	WinNT
#	Creation time:	15. 06. 2019 20:49

#	Modifying user name:	WinNT
#	Modification time:	15. 06. 2019 20:49

#	Program:	/corina/corina34_cracker 3.40 0067  02.08.2006

@<TRIPOS>MOLECULE
ASD04500012
  78   84    0    0    0
SMALL
NO_CHARGES


@<TRIPOS>ATOM
   1 C1            -0.0323     2.2610    -2.0049 C.ar    
   2 C2             0.0012     0.8959    -1.9594 C.ar    
   3 C3             1.1499     0.2218    -1.5654 C.ar    
   4 C4             2.2847     0.9186    -1.2108 C.ar    
   5 C5             2.2728     2.3116    -1.2504 C.ar    
   6 C6             1.1029     2.9962    -1.6515 C.ar    
   7 N7             1.1088     4.3438    -1.6841 N.2     
   8 C8             3.4528     3.1083    -0.8839 C.2     
   9 N9             3.3430     4.4555    -0.9550 N.am    
  10 C10            2.1697     5.0343    -1.3544 C.2     
  11 O11            4.4890     2.5767    -0.5298 O.2     
  12 C12            2.0972     6.5095    -1.4160 C.ar    
  13 C13            1.6457     8.5251    -2.6477 C.ar    
  14 C14            1.7119     7.1427    -2.5977 C.ar    
  15 C15            2.4086     7.2739    -0.2899 C.ar    
  16 C16            2.3394     8.6504    -0.3507 C.ar    
  17 C17            1.9618     9.2768    -1.5243 C.ar    
  18 C18            4.4874     5.2989    -0.6009 C.3     
  19 N19            7.4363     6.5419    -2.6318 N.pl3   
  20 N20            7.9504     5.5977    -3.3396 N.2     
  21 N21            8.6469     6.0928    -4.3011 N.2     
  22 C22            8.5946     7.4276    -4.2309 C.2     
  23 C23            7.8196     7.7263    -3.1623 C.2     
  24 C24            9.2669     8.4064    -5.1590 C.3     
  25 N25           10.6446     8.6327    -4.7153 N.am    
  26 C26           11.6325     7.7670    -5.0971 C.2     
  27 N27           12.8826     7.9075    -4.7386 N.2     
  28 C28           13.2847     8.9305    -3.9581 C.ar    
  29 C29           12.3314     9.8760    -3.5153 C.ar    
  30 C30           10.9329     9.7002    -3.9348 C.2     
  31 C31           14.6216     9.0774    -3.5777 C.ar    
  32 C32           14.9911    10.1366    -2.7799 C.ar    
  33 C33           14.0516    11.0628    -2.3467 C.ar    
  34 C34           12.7281    10.9423    -2.7116 C.ar    
  35 C35           11.2703     6.6186    -5.9545 C.ar    
  36 C36           10.6062     6.8295    -7.1639 C.ar    
  37 C37           10.2695     5.7551    -7.9619 C.ar    
  38 C38           10.5879     4.4689    -7.5674 C.ar    
  39 C39           11.2481     4.2492    -6.3657 C.ar    
  40 C40           11.5961     5.3203    -5.5604 C.ar    
  41 O41           10.0668    10.4827    -3.5898 O.2     
  42 C42            5.3833     5.4839    -1.8273 C.3     
  43 C43            6.5785     6.3647    -1.4576 C.3     
  44 S44           -0.2281     9.3800    -3.9142 S.o2    
  45 O45           -0.3885    10.1895    -2.7574 O.2     
  46 O46           -0.6418     8.0223    -3.8456 O.2     
  47 O47           -0.2260    10.0174    -5.1842 O.2     
  48 O48            1.2712     9.1460    -3.7972 O.3     
  49 S49           12.9226     2.5076    -6.4617 S.o2    
  50 O50           13.7099     3.5004    -5.8183 O.2     
  51 O51           12.6925     2.6346    -7.8582 O.2     
  52 O52           12.8858     1.2067    -5.8911 O.2     
  53 O53           11.5582     2.9826    -5.9828 O.3     
  54 H54           -0.9319     2.7705    -2.3172 H       
  55 H55           -0.8786     0.3326    -2.2334 H       
  56 H56            1.1537    -0.8578    -1.5365 H       
  57 H57            3.1752     0.3899    -0.9045 H       
  58 H58            1.4662     6.5567    -3.4710 H       
  59 H59            2.7031     6.7878     0.6285 H       
  60 H60            2.5805     9.2406     0.5210 H       
  61 H61            1.9098    10.3548    -1.5662 H       
  62 H62            4.1308     6.2713    -0.2614 H       
  63 H63            5.0572     4.8221     0.1967 H       
  64 H64            7.5589     8.7116    -2.8051 H       
  65 H65            9.2729     8.0019    -6.1711 H       
  66 H66            8.7219     9.3503    -5.1481 H       
  67 H67           15.3612     8.3630    -3.9079 H       
  68 H68           16.0246    10.2484    -2.4870 H       
  69 H69           14.3613    11.8868    -1.7210 H       
  70 H70           12.0037    11.6703    -2.3777 H       
  71 H71           10.3556     7.8329    -7.4749 H       
  72 H72            9.7554     5.9195    -8.8973 H       
  73 H73           10.3220     3.6319    -8.1960 H       
  74 H74           12.1099     5.1508    -4.6257 H       
  75 H75            5.7399     4.5114    -2.1668 H       
  76 H76            4.8136     5.9607    -2.6249 H       
  77 H77            7.1482     5.8880    -0.6600 H       
  78 H78            6.2219     7.3372    -1.1181 H       
@<TRIPOS>BOND
   1    1    2 ar
   2    1    6 ar
   3    1   54 1
   4    2    3 ar
   5    2   55 1
   6    3    4 ar
   7    3   56 1
   8    4    5 ar
   9    4   57 1
  10    5    6 ar
  11    5    8 1
  12    6    7 1
  13    7   10 2
  14    8    9 am
  15    8   11 2
  16    9   10 1
  17    9   18 1
  18   10   12 1
  19   12   15 ar
  20   12   14 ar
  21   13   14 ar
  22   13   17 ar
  23   13   48 1
  24   14   58 1
  25   15   16 ar
  26   15   59 1
  27   16   17 ar
  28   16   60 1
  29   17   61 1
  30   18   42 1
  31   18   62 1
  32   18   63 1
  33   19   20 1
  34   19   23 1
  35   19   43 1
  36   20   21 2
  37   21   22 1
  38   22   23 2
  39   22   24 1
  40   23   64 1
  41   24   25 1
  42   24   65 1
  43   24   66 1
  44   25   26 1
  45   25   30 am
  46   26   27 2
  47   26   35 1
  48   27   28 1
  49   28   31 ar
  50   28   29 ar
  51   29   30 1
  52   29   34 ar
  53   30   41 2
  54   31   32 ar
  55   31   67 1
  56   32   33 ar
  57   32   68 1
  58   33   34 ar
  59   33   69 1
  60   34   70 1
  61   35   36 ar
  62   35   40 ar
  63   36   37 ar
  64   36   71 1
  65   37   38 ar
  66   37   72 1
  67   38   39 ar
  68   38   73 1
  69   39   40 ar
  70   39   53 1
  71   40   74 1
  72   42   43 1
  73   42   75 1
  74   42   76 1
  75   43   77 1
  76   43   78 1
  77   44   45 2
  78   44   46 2
  79   44   47 2
  80   44   48 1
  81   49   50 2
  82   49   51 2
  83   49   52 2
  84   49   53 1

#	End of record

