#	Name: ASD01915362
#	Creating user name:	WinNT
#	Creation time:	15. 06. 2019 20:05

#	Modifying user name:	WinNT
#	Modification time:	15. 06. 2019 20:05

#	Program:	/corina/corina34_cracker 3.40 0067  02.08.2006

@<TRIPOS>MOLECULE
ASD01915362
  55   58    0    0    0
SMALL
NO_CHARGES


@<TRIPOS>ATOM
   1 C1            -0.0227     1.3768    -0.0646 C.ar    
   2 C2            -0.0087    -0.0238     0.0362 C.ar    
   3 C3            -1.2024    -0.7241     0.1394 C.ar    
   4 C4            -2.4042    -0.0507     0.1435 C.ar    
   5 C5            -2.4308     1.3443     0.0432 C.ar    
   6 C6            -1.2379     2.0586    -0.0547 C.ar    
   7 C7            -3.7219     2.0603     0.0475 C.2     
   8 O8            -3.8321     3.1114     0.6485 O.2     
   9 N9            -4.7784     1.5488    -0.6148 N.am    
  10 C10           -6.1040     2.1794    -0.5236 C.3     
  11 C11           -6.6368     2.4002    -1.9433 C.3     
  12 N12           -6.6030     1.1290    -2.6787 N.3     
  13 C13           -5.2269     0.6380    -2.8313 C.3     
  14 C14           -4.6350     0.3486    -1.4528 C.3     
  15 C15           -7.2280     1.2515    -3.9142 C.ar    
  16 C16            1.2075     2.1020    -0.1712 C.1     
  17 C17            2.2160     2.6966    -0.2586 C.1     
  18 C18            3.4461     3.4219    -0.3653 C.ar    
  19 C19            3.4235     4.8154    -0.4652 C.ar    
  20 C20            4.6205     5.5007    -0.5675 C.ar    
  21 C21            5.8033     4.7738    -0.5669 C.ar    
  22 C22            5.7541     3.3953    -0.4649 C.ar    
  23 N23            4.6024     2.7647    -0.3630 N.ar    
  24 N24           -7.7499     2.4142    -4.2731 N.ar    
  25 C25           -8.3517     2.5728    -5.4368 C.ar    
  26 C26           -8.4591     1.5236    -6.3271 C.ar    
  27 C27           -7.9248     0.2870    -5.9889 C.ar    
  28 C28           -7.2947     0.1527    -4.7652 C.ar    
  29 O29            1.1713    -0.6921     0.0323 O.3     
  30 C30            1.1109    -2.1159     0.1381 C.3     
  31 C31            2.1137     5.5608    -0.4620 C.3     
  32 H32           -1.1891    -1.8013     0.2165 H       
  33 H33           -3.3294    -0.6020     0.2241 H       
  34 H34           -1.2559     3.1357    -0.1319 H       
  35 H35           -6.7831     1.5267     0.0250 H       
  36 H36           -6.0191     3.1378    -0.0112 H       
  37 H37           -7.6628     2.7648    -1.8941 H       
  38 H38           -6.0139     3.1334    -2.4556 H       
  39 H39           -5.2305    -0.2754    -3.4261 H       
  40 H40           -4.6237     1.3958    -3.3312 H       
  41 H41           -3.5799     0.0943    -1.5534 H       
  42 H42           -5.1717    -0.4798    -0.9904 H       
  43 H43            4.6347     6.5777    -0.6464 H       
  44 H44            6.7538     5.2805    -0.6457 H       
  45 H45            6.6734     2.8284    -0.4646 H       
  46 H46           -8.7657     3.5361    -5.6958 H       
  47 H47           -8.9540     1.6627    -7.2769 H       
  48 H48           -7.9962    -0.5497    -6.6680 H       
  49 H49           -6.8678    -0.7946    -4.4704 H       
  50 H50            0.6219    -2.3904     1.0729 H       
  51 H51            0.5433    -2.5188    -0.7007 H       
  52 H52            2.1212    -2.5246     0.1229 H       
  53 H53            1.8426     5.8147     0.5627 H       
  54 H54            2.2141     6.4742    -1.0482 H       
  55 H55            1.3371     4.9326    -0.8983 H       
@<TRIPOS>BOND
   1    1    2 ar
   2    1   16 1
   3    1    6 ar
   4    2    3 ar
   5    2   29 1
   6    3    4 ar
   7    3   32 1
   8    4    5 ar
   9    4   33 1
  10    5    6 ar
  11    5    7 1
  12    6   34 1
  13    7    8 2
  14    7    9 am
  15    9   10 1
  16    9   14 1
  17   10   11 1
  18   10   35 1
  19   10   36 1
  20   11   12 1
  21   11   37 1
  22   11   38 1
  23   12   13 1
  24   12   15 1
  25   13   14 1
  26   13   39 1
  27   13   40 1
  28   14   41 1
  29   14   42 1
  30   15   24 ar
  31   15   28 ar
  32   16   17 3
  33   17   18 1
  34   18   19 ar
  35   18   23 ar
  36   19   20 ar
  37   19   31 1
  38   20   21 ar
  39   20   43 1
  40   21   22 ar
  41   21   44 1
  42   22   23 ar
  43   22   45 1
  44   24   25 ar
  45   25   26 ar
  46   25   46 1
  47   26   27 ar
  48   26   47 1
  49   27   28 ar
  50   27   48 1
  51   28   49 1
  52   29   30 1
  53   30   50 1
  54   30   51 1
  55   30   52 1
  56   31   53 1
  57   31   54 1
  58   31   55 1

#	End of record

