#	Name: ASD02610024
#	Creating user name:	WinNT
#	Creation time:	15. 06. 2019 20:25

#	Modifying user name:	WinNT
#	Modification time:	15. 06. 2019 20:25

#	Program:	/corina/corina34_cracker 3.40 0067  02.08.2006

@<TRIPOS>MOLECULE
ASD02610024
 105  108    0    0    0
SMALL
NO_CHARGES


@<TRIPOS>ATOM
   1 C1            -0.0658     0.9902    -0.3092 C.3     
   2 C2             0.5431    -0.4273    -0.4356 C.3     
   3 C3             1.9923    -0.1905    -0.7909 C.2     
   4 C4             2.3467     1.0487    -0.5409 C.2     
   5 C5             1.1885     1.8186     0.0276 C.3     
   6 C6             3.7089     1.6210    -0.8321 C.3     
   7 C7             4.0456     2.7508     0.1174 C.3     
   8 C8             3.4241     4.0732    -0.2119 C.3     
   9 C9             2.0140     4.2006     0.3042 C.3     
  10 C10            1.0793     3.2368    -0.4086 C.3     
  11 O11           -0.1216    -1.1715    -1.4905 O.3     
  12 C12            2.9119    -1.2407    -1.3588 C.3     
  13 O13           -1.0364     1.0485     0.7692 O.3     
  14 H14            1.2967     1.8208     1.1122 H       
  15 O15           -0.2867     3.6787    -0.1918 O.3     
  16 C16            1.3696     3.3039    -1.9093 C.3     
  17 O17            3.4118     4.2359    -1.6315 O.3     
  18 O18            4.7461     0.6470    -0.6216 O.3     
  19 C19            5.9716     1.3864    -0.4431 C.3     
  20 C20            5.5879     2.7900     0.0774 C.3     
  21 O21            3.6342     2.3777     1.4340 O.3     
  22 C22           -2.3162     0.7978     0.4513 C.2     
  23 C23           -3.3798     0.8401     1.5182 C.3     
  24 C24           -4.7400     0.5199     0.8953 C.3     
  25 C25           -5.8198     0.5628     1.9784 C.3     
  26 C26           -7.1801     0.2427     1.3555 C.3     
  27 C27           -8.2598     0.2856     2.4386 C.3     
  28 O28           -2.6155     0.5382    -0.6901 O.2     
  29 O29            6.0423     3.8021    -0.8233 O.3     
  30 C30           -9.6201    -0.0346     1.8157 C.3     
  31 C31          -10.6998     0.0083     2.8988 C.3     
  32 C32            6.1574     3.0190     1.4789 C.3     
  33 C33           -0.6092     4.9029    -0.6380 C.2     
  34 C34           -1.9859     5.4598    -0.3817 C.3     
  35 O35            0.2042     5.5583    -1.2452 O.2     
  36 H36            3.7451     1.9807    -1.8604 H       
  37 C37            6.7046     1.5096    -1.7804 C.3     
  38 O38            6.8039     0.7247     0.5116 O.3     
  39 C39           -0.1872    -2.5045    -1.3475 C.2     
  40 C40           -0.8621    -3.3431    -2.4022 C.3     
  41 C41           -0.7990    -4.8176    -1.9989 C.3     
  42 C42           -1.4739    -5.6562    -3.0536 C.2     
  43 N43           -1.5398    -6.9947    -2.9101 N.am    
  44 C44           -2.0647    -7.7837    -3.9395 C.ar    
  45 O45            0.2947    -3.0321    -0.3732 O.2     
  46 O46           -1.9577    -5.1266    -4.0316 O.2     
  47 C47           -1.9094    -7.3927    -5.2633 C.ar    
  48 C48           -2.4275    -8.1711    -6.2807 C.ar    
  49 C49           -3.1016    -9.3400    -5.9852 C.ar    
  50 C50           -3.2609    -9.7367    -4.6627 C.ar    
  51 C51           -2.7360    -8.9604    -3.6392 C.ar    
  52 C52           -3.6654   -10.1857    -7.0978 C.3     
  53 N53           -3.9431   -10.9184    -4.3645 N.pl3   
  54 H54           -0.5085     1.3131    -1.2515 H       
  55 H55            0.4665    -0.9597     0.5124 H       
  56 H56            4.0315     4.8657     0.2253 H       
  57 H57            2.0035     3.9844     1.3725 H       
  58 H58            1.6655     5.2209     0.1436 H       
  59 H59            2.3682    -2.1791    -1.4683 H       
  60 H60            3.2762    -0.9161    -2.3335 H       
  61 H61            3.7565    -1.3866    -0.6854 H       
  62 H62            0.5560     2.8299    -2.4583 H       
  63 H63            1.4563     4.3462    -2.2163 H       
  64 H64            2.3033     2.7835    -2.1224 H       
  65 H65            3.0237     5.0704    -1.9284 H       
  66 H66            3.9974     1.5336     1.7352 H       
  67 H67           -3.1508     0.1040     2.2889 H       
  68 H68           -3.4089     1.8348     1.9630 H       
  69 H69           -4.9690     1.2559     0.1246 H       
  70 H70           -4.7109    -0.4748     0.4505 H       
  71 H71           -5.5908    -0.1732     2.7491 H       
  72 H72           -5.8489     1.5575     2.4232 H       
  73 H73           -7.4090     0.9787     0.5848 H       
  74 H74           -7.1509    -0.7520     0.9107 H       
  75 H75           -8.0308    -0.4505     3.2093 H       
  76 H76           -8.2889     1.2803     2.8834 H       
  77 H77            7.0049     3.8693    -0.8862 H       
  78 H78           -9.8491     0.7014     1.0450 H       
  79 H79           -9.5910    -1.0293     1.3709 H       
  80 H80          -10.4709    -0.7277     3.6695 H       
  81 H81          -10.7290     1.0030     3.3436 H       
  82 H82          -11.6689    -0.2198     2.4550 H       
  83 H83            5.8418     2.2088     2.1362 H       
  84 H84            7.2460     3.0434     1.4292 H       
  85 H85            5.7901     3.9679     1.8697 H       
  86 H86           -2.5747     4.7312     0.1755 H       
  87 H87           -1.9037     6.3797     0.1972 H       
  88 H88           -2.4750     5.6715    -1.3326 H       
  89 H89            6.0601     2.0098    -2.5033 H       
  90 H90            7.6161     2.0912    -1.6428 H       
  91 H91            6.9598     0.5156    -2.1478 H       
  92 H92            7.0704    -0.1672     0.2497 H       
  93 H93           -1.9038    -3.0369    -2.4983 H       
  94 H94           -0.3535    -3.2053    -3.3564 H       
  95 H95            0.2427    -5.1238    -1.9029 H       
  96 H96           -1.3076    -4.9554    -1.0447 H       
  97 H97           -1.2233    -7.4110    -2.0931 H       
  98 H98           -1.3835    -6.4790    -5.4977 H       
  99 H99           -2.3053    -7.8648    -7.3091 H       
 100 H100          -2.8583    -9.2663    -2.6107 H       
 101 H101          -2.9178   -10.9120    -7.4168 H       
 102 H102          -4.5525   -10.7097    -6.7421 H       
 103 H103          -3.9337    -9.5470    -7.9394 H       
 104 H104          -4.3060   -11.4628    -5.0806 H       
 105 H105          -4.0539   -11.1947    -3.4413 H       
@<TRIPOS>BOND
   1    1    2 1
   2    1    5 1
   3    1   13 1
   4    1   54 1
   5    2    3 1
   6    2   11 1
   7    2   55 1
   8    3    4 2
   9    3   12 1
  10    4    5 1
  11    4    6 1
  12    5   10 1
  13    5   14 1
  14    6    7 1
  15    6   18 1
  16    6   36 1
  17    7   20 1
  18    7   21 1
  19    7    8 1
  20    8    9 1
  21    8   17 1
  22    8   56 1
  23    9   10 1
  24    9   57 1
  25    9   58 1
  26   10   15 1
  27   10   16 1
  28   11   39 1
  29   12   59 1
  30   12   60 1
  31   12   61 1
  32   13   22 1
  33   15   33 1
  34   16   62 1
  35   16   63 1
  36   16   64 1
  37   17   65 1
  38   18   19 1
  39   19   20 1
  40   19   37 1
  41   19   38 1
  42   20   29 1
  43   20   32 1
  44   21   66 1
  45   22   23 1
  46   22   28 2
  47   23   24 1
  48   23   67 1
  49   23   68 1
  50   24   25 1
  51   24   69 1
  52   24   70 1
  53   25   26 1
  54   25   71 1
  55   25   72 1
  56   26   27 1
  57   26   73 1
  58   26   74 1
  59   27   30 1
  60   27   75 1
  61   27   76 1
  62   29   77 1
  63   30   31 1
  64   30   78 1
  65   30   79 1
  66   31   80 1
  67   31   81 1
  68   31   82 1
  69   32   83 1
  70   32   84 1
  71   32   85 1
  72   33   34 1
  73   33   35 2
  74   34   86 1
  75   34   87 1
  76   34   88 1
  77   37   89 1
  78   37   90 1
  79   37   91 1
  80   38   92 1
  81   39   40 1
  82   39   45 2
  83   40   41 1
  84   40   93 1
  85   40   94 1
  86   41   42 1
  87   41   95 1
  88   41   96 1
  89   42   43 am
  90   42   46 2
  91   43   44 1
  92   43   97 1
  93   44   47 ar
  94   44   51 ar
  95   47   48 ar
  96   47   98 1
  97   48   49 ar
  98   48   99 1
  99   49   50 ar
 100   49   52 1
 101   50   51 ar
 102   50   53 1
 103   51  100 1
 104   52  101 1
 105   52  102 1
 106   52  103 1
 107   53  104 1
 108   53  105 1

#	End of record

