#	Name: ASD01920015
#	Creating user name:	WinNT
#	Creation time:	15. 06. 2019 20:11

#	Modifying user name:	WinNT
#	Modification time:	15. 06. 2019 20:11

#	Program:	/corina/corina34_cracker 3.40 0067  02.08.2006

@<TRIPOS>MOLECULE
ASD01920015
  37   40    0    0    0
SMALL
NO_CHARGES


@<TRIPOS>ATOM
   1 N1            -0.0174     1.3625     0.1051 N.am    
   2 C2             0.0022    -0.0037    -0.0000 C.2     
   3 C3            -1.1517    -0.7275    -0.0877 C.2     
   4 C4            -2.3852    -0.0663    -0.0704 C.2     
   5 C5            -2.3958     1.3363     0.0378 C.2     
   6 C6            -1.1846     2.0416     0.1308 C.2     
   7 O7            -3.6722    -0.4338    -0.1338 O.3     
   8 N8            -4.4363     0.5027    -0.0821 N.2     
   9 C9            -3.8260     1.6591     0.0239 C.2     
  10 C10           -4.4483     3.0028     0.1106 C.ar    
  11 O11           -1.1866     3.2570     0.2248 O.2     
  12 C12            1.2467     2.0971     0.1971 C.3     
  13 C13            1.3003    -0.7084    -0.0194 C.ar    
  14 C14           -5.6185     3.2785    -0.5945 C.ar    
  15 C15           -6.1934     4.5303    -0.5098 C.ar    
  16 C16           -5.6103     5.5104     0.2730 C.ar    
  17 C17           -4.4489     5.2425     0.9749 C.ar    
  18 C18           -3.8682     3.9926     0.9018 C.ar    
  19 C19            1.5181    -1.7995     0.8245 C.ar    
  20 C20            2.7316    -2.4534     0.8023 C.ar    
  21 C21            3.7347    -2.0296    -0.0556 C.ar    
  22 C22            3.5241    -0.9468    -0.8952 C.ar    
  23 C23            2.3123    -0.2894    -0.8858 C.ar    
  24 F24            4.9219    -2.6741    -0.0733 F       
  25 H25           -1.1132    -1.8036    -0.1703 H       
  26 H26            1.6348     2.2794    -0.8050 H       
  27 H27            1.0778     3.0492     0.7001 H       
  28 H28            1.9681     1.5092     0.7647 H       
  29 H29           -6.0744     2.5140    -1.2062 H       
  30 H30           -7.1000     4.7451    -1.0560 H       
  31 H31           -6.0634     6.4888     0.3361 H       
  32 H32           -3.9979     6.0115     1.5845 H       
  33 H33           -2.9616     3.7843     1.4505 H       
  34 H34            0.7375    -2.1303     1.4936 H       
  35 H35            2.9013    -3.2972     1.4548 H       
  36 H36            4.3093    -0.6204    -1.5611 H       
  37 H37            2.1492     0.5539    -1.5405 H       
@<TRIPOS>BOND
   1    1    2 1
   2    1   12 1
   3    1    6 am
   4    2    3 2
   5    2   13 1
   6    3    4 1
   7    3   25 1
   8    4    5 2
   9    4    7 1
  10    5    6 1
  11    5    9 1
  12    6   11 2
  13    7    8 1
  14    8    9 2
  15    9   10 1
  16   10   14 ar
  17   10   18 ar
  18   12   26 1
  19   12   27 1
  20   12   28 1
  21   13   19 ar
  22   13   23 ar
  23   14   15 ar
  24   14   29 1
  25   15   16 ar
  26   15   30 1
  27   16   17 ar
  28   16   31 1
  29   17   18 ar
  30   17   32 1
  31   18   33 1
  32   19   20 ar
  33   19   34 1
  34   20   21 ar
  35   20   35 1
  36   21   22 ar
  37   21   24 1
  38   22   23 ar
  39   22   36 1
  40   23   37 1

#	End of record

