#	Name: ASD08178017
#	Creating user name:	WinNT
#	Creation time:	15. 06. 2019 21:18

#	Modifying user name:	WinNT
#	Modification time:	15. 06. 2019 21:18

#	Program:	/corina/corina34_cracker 3.40 0067  02.08.2006

@<TRIPOS>MOLECULE
ASD08178017
  39   40    0    0    0
SMALL
NO_CHARGES


@<TRIPOS>ATOM
   1 C1            -0.0184     1.5028     0.0103 C.2     
   2 C2             0.0021    -0.0041     0.0020 C.3     
   3 C3            -0.0048    -0.5063    -1.4432 C.3     
   4 S4             0.0198    -2.3201    -1.4532 S.3     
   5 C5             0.0085    -2.7186    -3.2228 C.3     
   6 C6             0.0274    -4.2378    -3.4036 C.3     
   7 C7             0.0180    -4.5688    -4.8738 C.2     
   8 S8            -1.4127    -4.8168    -5.8752 S.3     
   9 C9            -0.3955    -5.1036    -7.2235 C.2     
  10 N10            0.8415    -4.9980    -6.8416 N.2     
  11 N11            1.0589    -4.7169    -5.6302 N.2     
  12 N12           -0.8233    -5.4007    -8.5130 N.am    
  13 C13            0.0799    -5.6063    -9.4920 C.2     
  14 O14            1.2657    -5.5322    -9.2484 O.2     
  15 C15           -0.3836    -5.9282   -10.8894 C.3     
  16 S16            1.3918     2.5625     0.0025 S.3     
  17 N17           -1.0746     2.2524     0.0187 N.2     
  18 N18           -0.8817     3.5001     0.0243 N.2     
  19 C19            0.3474     3.9203     0.0191 C.2     
  20 N20            0.7489     5.2518     0.0242 N.am    
  21 C21           -0.1741     6.2339     0.0349 C.2     
  22 O22           -1.3547     5.9565     0.0402 O.2     
  23 C23            0.2610     7.6767     0.0404 C.3     
  24 H24            0.9018    -0.3580     0.5054 H       
  25 H25           -0.8780    -0.3822     0.5223 H       
  26 H26           -0.9045    -0.1523    -1.9466 H       
  27 H27            0.8752    -0.1281    -1.9634 H       
  28 H28           -0.8915    -2.3093    -3.6817 H       
  29 H29            0.8882    -2.2851    -3.6985 H       
  30 H30            0.9275    -4.6471    -2.9448 H       
  31 H31           -0.8522    -4.6713    -2.9279 H       
  32 H32           -1.7717    -5.4600    -8.7078 H       
  33 H33           -0.5117    -5.0034   -11.4518 H       
  34 H34            0.3595    -6.5541   -11.3835 H       
  35 H35           -1.3339    -6.4601   -10.8434 H       
  36 H36            1.6932     5.4737     0.0200 H       
  37 H37            1.3498     7.7279     0.0345 H       
  38 H38           -0.1311     8.1778    -0.8446 H       
  39 H39           -0.1209     8.1680     0.9353 H       
@<TRIPOS>BOND
   1    1    2 1
   2    1   16 1
   3    1   17 2
   4    2    3 1
   5    2   24 1
   6    2   25 1
   7    3    4 1
   8    3   26 1
   9    3   27 1
  10    4    5 1
  11    5    6 1
  12    5   28 1
  13    5   29 1
  14    6    7 1
  15    6   30 1
  16    6   31 1
  17    7    8 1
  18    7   11 2
  19    8    9 1
  20    9   10 2
  21    9   12 1
  22   10   11 1
  23   12   13 am
  24   12   32 1
  25   13   14 2
  26   13   15 1
  27   15   33 1
  28   15   34 1
  29   15   35 1
  30   16   19 1
  31   17   18 1
  32   18   19 2
  33   19   20 1
  34   20   21 am
  35   20   36 1
  36   21   22 2
  37   21   23 1
  38   23   37 1
  39   23   38 1
  40   23   39 1

#	End of record

