#	Name: ASD04430081
#	Creating user name:	WinNT
#	Creation time:	15. 06. 2019 20:49

#	Modifying user name:	WinNT
#	Modification time:	15. 06. 2019 20:49

#	Program:	/corina/corina34_cracker 3.40 0067  02.08.2006

@<TRIPOS>MOLECULE
ASD04430081
  44   47    0    0    0
SMALL
NO_CHARGES


@<TRIPOS>ATOM
   1 N1             0.0158     1.3545     0.4614 N.am    
   2 C2             0.0401    -0.0015     0.5061 C.2     
   3 N3             1.1299    -0.6968     0.3598 N.2     
   4 C4             2.3200    -0.1132     0.1515 C.2     
   5 C5             2.3945     1.2874     0.0892 C.2     
   6 C6             1.1582     2.0512     0.2566 C.2     
   7 N7             3.5864    -0.5776    -0.0314 N.pl3   
   8 N8             4.4364     0.5220    -0.2051 N.2     
   9 C9             3.7423     1.6249    -0.1355 C.2     
  10 O10            1.1567     3.2687     0.2129 O.2     
  11 C11           -1.2554    -0.7361     0.7364 C.3     
  12 C12           -0.9918    -2.2432     0.7488 C.3     
  13 C13            3.9731    -1.9237    -0.0438 C.ar    
  14 C14            3.2720    -2.8419    -0.8141 C.ar    
  15 C15            3.6561    -4.1687    -0.8245 C.ar    
  16 C16            4.7373    -4.5828    -0.0687 C.ar    
  17 C17            5.4377    -3.6707     0.6996 C.ar    
  18 C18            5.0622    -2.3419     0.7099 C.ar    
  19 C19           -0.1489    -2.6203     1.9448 C.2     
  20 C20           -0.6183    -3.6867     2.5332 C.2     
  21 C21           -1.8525    -4.1986     1.8277 C.3     
  22 C22           -2.3152    -3.0200     0.9400 C.3     
  23 C23            5.8259    -1.3487     1.5474 C.3     
  24 C24            5.0614    -1.0816     2.8455 C.3     
  25 H25           -0.8243     1.8264     0.5727 H       
  26 H26            4.1352     2.6261    -0.2339 H       
  27 H27           -1.6794    -0.4336     1.6939 H       
  28 H28           -1.9562    -0.4964    -0.0633 H       
  29 H29           -0.4997    -2.5495    -0.1743 H       
  30 H30            2.4270    -2.5191    -1.4041 H       
  31 H31            3.1112    -4.8833    -1.4234 H       
  32 H32            5.0352    -5.6209    -0.0780 H       
  33 H33            6.2815    -3.9974     1.2892 H       
  34 H34            0.7272    -2.0788     2.2699 H       
  35 H35           -0.1816    -4.1435     3.4090 H       
  36 H36           -1.6066    -5.0639     1.2121 H       
  37 H37           -2.6255    -4.4545     2.5523 H       
  38 H38           -3.0563    -2.4093     1.4556 H       
  39 H39           -2.7007    -3.3771    -0.0149 H       
  40 H40            6.8106    -1.7526     1.7822 H       
  41 H41            5.9381    -0.4166     0.9935 H       
  42 H42            4.9491    -2.0137     3.3994 H       
  43 H43            5.6137    -0.3633     3.4512 H       
  44 H44            4.0766    -0.6777     2.6107 H       
@<TRIPOS>BOND
   1    1    2 1
   2    1    6 am
   3    1   25 1
   4    2    3 2
   5    2   11 1
   6    3    4 1
   7    4    5 2
   8    4    7 1
   9    5    6 1
  10    5    9 1
  11    6   10 2
  12    7    8 1
  13    7   13 1
  14    8    9 2
  15    9   26 1
  16   11   12 1
  17   11   27 1
  18   11   28 1
  19   12   19 1
  20   12   22 1
  21   12   29 1
  22   13   14 ar
  23   13   18 ar
  24   14   15 ar
  25   14   30 1
  26   15   16 ar
  27   15   31 1
  28   16   17 ar
  29   16   32 1
  30   17   18 ar
  31   17   33 1
  32   18   23 1
  33   19   20 2
  34   19   34 1
  35   20   21 1
  36   20   35 1
  37   21   22 1
  38   21   36 1
  39   21   37 1
  40   22   38 1
  41   22   39 1
  42   23   24 1
  43   23   40 1
  44   23   41 1
  45   24   42 1
  46   24   43 1
  47   24   44 1

#	End of record

