#	Name: ASD01811687
#	Creating user name:	WinNT
#	Creation time:	15. 06. 2019 19:27

#	Modifying user name:	WinNT
#	Modification time:	15. 06. 2019 19:27

#	Program:	/corina/corina34_cracker 3.40 0067  02.08.2006

@<TRIPOS>MOLECULE
ASD01811687
  56   59    0    0    0
SMALL
NO_CHARGES


@<TRIPOS>ATOM
   1 C1            -0.0167     1.3805     0.0096 C.ar    
   2 C2             0.0021    -0.0041     0.0020 C.ar    
   3 C3            -1.1845    -0.7161     0.0090 C.ar    
   4 C4            -2.3942    -0.0535     0.0241 C.ar    
   5 C5            -2.4213     1.3425     0.0323 C.ar    
   6 C6            -1.2177     2.0512     0.0304 C.ar    
   7 C7             1.2777     2.1522     0.0014 C.3     
   8 C8             1.3184    -0.7376    -0.0144 C.3     
   9 C9            -1.1549    -2.2228    -0.0004 C.3     
  10 C10           -1.0078    -2.7311     1.4107 C.ar    
  11 C11           -2.1329    -2.9880     2.1724 C.ar    
  12 C12           -2.0013    -3.4535     3.4661 C.ar    
  13 C13           -0.7376    -3.6640     4.0014 C.ar    
  14 C14            0.3902    -3.4056     3.2340 C.ar    
  15 C15            0.2520    -2.9451     1.9391 C.ar    
  16 C16           -3.5309     2.3149     0.0477 C.2     
  17 N17           -3.0504     3.5703     0.0501 N.am    
  18 C18           -1.5841     3.5142     0.0402 C.3     
  19 O19           -4.7107     2.0226     0.0563 O.2     
  20 C20           -3.8575     4.7928     0.0640 C.3     
  21 C21           -4.1248     5.2110     1.5113 C.3     
  22 O22           -2.8915     5.5650     2.1404 O.3     
  23 C23           -5.0697     6.4142     1.5283 C.3     
  24 C24           -4.7676     4.0470     2.2681 C.3     
  25 N25           -0.6007    -4.1359     5.3143 N.pl3   
  26 C26            0.5649    -4.3823     5.9540 C.2     
  27 C27            0.2666    -4.8232     7.1980 C.2     
  28 C28           -1.1267    -4.8475     7.3239 C.2     
  29 N29           -1.6472    -4.4302     6.1979 N.2     
  30 H30           -3.3180    -0.6130     0.0291 H       
  31 H31            1.5800     2.3437    -1.0282 H       
  32 H32            1.1390     3.0999     0.5217 H       
  33 H33            2.0504     1.5710     0.5048 H       
  34 H34            1.6456    -0.9199     1.0092 H       
  35 H35            1.1977    -1.6891    -0.5323 H       
  36 H36            2.0641    -0.1342    -0.5322 H       
  37 H37           -2.0831    -2.6018    -0.4281 H       
  38 H38           -0.3118    -2.5659    -0.5999 H       
  39 H39           -3.1156    -2.8241     1.7554 H       
  40 H40           -2.8804    -3.6533     4.0608 H       
  41 H41            1.3744    -3.5679     3.6478 H       
  42 H42            1.1289    -2.7439     1.3417 H       
  43 H43           -1.1849     3.9949     0.9333 H       
  44 H44           -1.1966     4.0028    -0.8538 H       
  45 H45           -3.3198     5.5891    -0.4508 H       
  46 H46           -4.8052     4.6083    -0.4418 H       
  47 H47           -2.9853     5.8411     3.0623 H       
  48 H48           -6.0105     6.1442     1.0485 H       
  49 H49           -5.2602     6.7121     2.5594 H       
  50 H50           -4.6118     7.2435     0.9892 H       
  51 H51           -4.0944     3.1898     2.2560 H       
  52 H52           -4.9580     4.3449     3.2991 H       
  53 H53           -5.7083     3.7769     1.7882 H       
  54 H54            1.5559    -4.2513     5.5452 H       
  55 H55            0.9783    -5.1063     7.9594 H       
  56 H56           -1.6778    -5.1535     8.2009 H       
@<TRIPOS>BOND
   1    1    2 ar
   2    1    7 1
   3    1    6 ar
   4    2    3 ar
   5    2    8 1
   6    3    4 ar
   7    3    9 1
   8    4    5 ar
   9    4   30 1
  10    5    6 ar
  11    5   16 1
  12    6   18 1
  13    7   31 1
  14    7   32 1
  15    7   33 1
  16    8   34 1
  17    8   35 1
  18    8   36 1
  19    9   10 1
  20    9   37 1
  21    9   38 1
  22   10   11 ar
  23   10   15 ar
  24   11   12 ar
  25   11   39 1
  26   12   13 ar
  27   12   40 1
  28   13   14 ar
  29   13   25 1
  30   14   15 ar
  31   14   41 1
  32   15   42 1
  33   16   17 am
  34   16   19 2
  35   17   18 1
  36   17   20 1
  37   18   43 1
  38   18   44 1
  39   20   21 1
  40   20   45 1
  41   20   46 1
  42   21   22 1
  43   21   23 1
  44   21   24 1
  45   22   47 1
  46   23   48 1
  47   23   49 1
  48   23   50 1
  49   24   51 1
  50   24   52 1
  51   24   53 1
  52   25   26 1
  53   25   29 1
  54   26   27 2
  55   26   54 1
  56   27   28 1
  57   27   55 1
  58   28   29 2
  59   28   56 1

#	End of record

