#	Name: ASD03330840
#	Creating user name:	WinNT
#	Creation time:	15. 06. 2019 20:38

#	Modifying user name:	WinNT
#	Modification time:	15. 06. 2019 20:38

#	Program:	/corina/corina34_cracker 3.40 0067  02.08.2006

@<TRIPOS>MOLECULE
ASD03330840
  63   65    0    0    0
SMALL
NO_CHARGES


@<TRIPOS>ATOM
   1 C1            -0.0611     2.0043     1.7846 C.2     
   2 N2            -0.1500     0.7129     2.2003 N.pl3   
   3 C3             1.2155     2.1985     1.3518 C.2     
   4 N4             1.8800     1.0303     1.4904 N.2     
   5 C5             1.0667     0.1315     1.9936 C.2     
   6 C6             1.4116    -1.2764     2.2875 C.ar    
   7 C7             1.0539    -1.8449     3.5104 C.ar    
   8 C8             1.7722     3.4573     0.8257 C.2     
   9 O9             1.0702     4.4475     0.7488 O.2     
  10 C10            3.6129     4.7630    -0.0930 C.3     
  11 N11            3.0594     3.5115     0.4299 N.am    
  12 C12            1.3783    -3.1597     3.7785 C.ar    
  13 C13            2.0579    -3.9148     2.8372 C.ar    
  14 C14            2.4158    -3.3586     1.6232 C.ar    
  15 C15            2.0920    -2.0447     1.3395 C.ar    
  16 C16           -1.3428     0.0858     2.7763 C.3     
  17 C17           -2.5586     0.4285     1.9097 C.3     
  18 C18           -3.1673     1.7479     2.3738 C.3     
  19 N19           -2.1329     2.6635     2.8592 N.3     
  20 C20           -1.1826     3.0104     1.7920 C.3     
  21 C21           -2.7311     3.8709     3.4443 C.3     
  22 C22            3.3019     4.8733    -1.5870 C.3     
  23 C23            1.7911     4.7643    -1.8028 C.3     
  24 C24            3.7961     6.2226    -2.1126 C.3     
  25 C25            4.0074     3.7434    -2.3396 C.3     
  26 C26            5.1059     4.7762     0.1116 C.2     
  27 O27            5.6887     3.7501     0.3914 O.2     
  28 N28            5.7935     5.9283    -0.0164 N.am    
  29 C29            7.2531     5.9281     0.1093 C.3     
  30 F30            2.4418    -1.5021     0.1527 F       
  31 C31            3.1551    -4.1877     0.6048 C.3     
  32 Cl32           0.9337    -3.8682     5.2997 Cl      
  33 H33            0.5245    -1.2574     4.2459 H       
  34 H34            3.1665     5.6061     0.4343 H       
  35 H35            3.6193     2.7218     0.4913 H       
  36 H36            2.3097    -4.9427     3.0526 H       
  37 H37           -1.2084    -0.9955     2.8042 H       
  38 H38           -1.4990     0.4607     3.7878 H       
  39 H39           -2.2479     0.5190     0.8688 H       
  40 H40           -3.3015    -0.3642     1.9977 H       
  41 H41           -3.6931     2.2122     1.5395 H       
  42 H42           -3.8767     1.5513     3.1776 H       
  43 H43           -0.7779     4.0060     1.9738 H       
  44 H44           -1.6936     2.9936     0.8293 H       
  45 H45           -3.3705     3.5905     4.2814 H       
  46 H46           -1.9408     4.5337     3.7969 H       
  47 H47           -3.3259     4.3844     2.6889 H       
  48 H48            1.2885     5.5692    -1.2666 H       
  49 H49            1.5695     4.8428    -2.8672 H       
  50 H50            1.4390     3.8030    -1.4284 H       
  51 H51            4.8405     6.3608    -1.8332 H       
  52 H52            3.7044     6.2452    -3.1985 H       
  53 H53            3.1954     7.0229    -1.6805 H       
  54 H54            3.6554     2.7822    -1.9652 H       
  55 H55            3.7859     3.8220    -3.4039 H       
  56 H56            5.0837     3.8211    -2.1858 H       
  57 H57            5.3219     6.7577    -0.1917 H       
  58 H58            7.5326     5.5631     1.0976 H       
  59 H59            7.6833     5.2787    -0.6530 H       
  60 H60            7.6293     6.9426    -0.0231 H       
  61 H61            2.4381    -4.6910    -0.0437 H       
  62 H62            3.7955    -3.5406     0.0053 H       
  63 H63            3.7667    -4.9310     1.1163 H       
@<TRIPOS>BOND
   1    1    2 1
   2    1    3 2
   3    1   20 1
   4    2   16 1
   5    2    5 1
   6    3    4 1
   7    3    8 1
   8    4    5 2
   9    5    6 1
  10    6    7 ar
  11    6   15 ar
  12    7   12 ar
  13    7   33 1
  14    8    9 2
  15    8   11 am
  16   10   11 1
  17   10   22 1
  18   10   26 1
  19   10   34 1
  20   11   35 1
  21   12   13 ar
  22   12   32 1
  23   13   14 ar
  24   13   36 1
  25   14   15 ar
  26   14   31 1
  27   15   30 1
  28   16   17 1
  29   16   37 1
  30   16   38 1
  31   17   18 1
  32   17   39 1
  33   17   40 1
  34   18   19 1
  35   18   41 1
  36   18   42 1
  37   19   20 1
  38   19   21 1
  39   20   43 1
  40   20   44 1
  41   21   45 1
  42   21   46 1
  43   21   47 1
  44   22   23 1
  45   22   24 1
  46   22   25 1
  47   23   48 1
  48   23   49 1
  49   23   50 1
  50   24   51 1
  51   24   52 1
  52   24   53 1
  53   25   54 1
  54   25   55 1
  55   25   56 1
  56   26   27 2
  57   26   28 am
  58   28   29 1
  59   28   57 1
  60   29   58 1
  61   29   59 1
  62   29   60 1
  63   31   61 1
  64   31   62 1
  65   31   63 1

#	End of record

