#	Name: ASD05323017
#	Creating user name:	WinNT
#	Creation time:	15. 06. 2019 20:59

#	Modifying user name:	WinNT
#	Modification time:	15. 06. 2019 20:59

#	Program:	/corina/corina34_cracker 3.40 0067  02.08.2006

@<TRIPOS>MOLECULE
ASD05323017
  49   52    0    0    0
SMALL
NO_CHARGES


@<TRIPOS>ATOM
   1 C1            -0.0187     1.5258     0.0104 C.3     
   2 C2             0.0021    -0.0041     0.0020 C.3     
   3 P3             1.6916     2.1568    -0.0025 P.3     
   4 O4             2.4039     1.7481    -1.3873 O.3     
   5 O5             1.6730     3.7605     0.1386 O.3     
   6 O6             2.4423     1.5705     1.1303 O.2     
   7 O7            -2.1040    -0.1936    -1.2201 O.3     
   8 C8            -1.4333    -0.5336     0.0129 C.3     
   9 C9            -1.4365    -2.0780     0.0510 C.3     
  10 C10           -2.6298    -2.4732    -0.8473 C.3     
  11 C11           -3.2065    -1.1210    -1.3219 C.3     
  12 O12           -3.6052    -3.1969    -0.0944 O.3     
  13 O13           -1.6384    -2.5455     1.3862 O.3     
  14 C14           -2.7749    -1.5107    -3.6750 C.2     
  15 N15           -3.1368    -1.6149    -4.9657 N.am    
  16 C16           -4.4225    -1.4268    -5.3304 C.2     
  17 C17           -5.4110    -1.1080    -4.2898 C.2     
  18 C18           -4.9823    -1.0161    -2.9965 C.2     
  19 N19           -3.6629    -1.2203    -2.7105 N.am    
  20 C20           -6.8316    -0.8920    -4.6346 C.2     
  21 C21           -7.2793     0.1138    -5.3865 C.2     
  22 C22           -8.7158     0.1233    -5.5918 C.ar    
  23 C23           -9.3438    -0.9462    -4.9451 C.ar    
  24 S24           -8.1452    -1.9293    -4.1140 S.3     
  25 C25           -9.5067     1.0341    -6.3270 C.ar    
  26 C26          -10.8562     0.8711    -6.4028 C.ar    
  27 C27          -11.4763    -0.1912    -5.7599 C.ar    
  28 C28          -10.7307    -1.0930    -5.0363 C.ar    
  29 O29           -4.7568    -1.5189    -6.4971 O.2     
  30 O30           -1.6111    -1.6893    -3.3718 O.2     
  31 H31           -0.5459     1.8868    -0.8726 H       
  32 H32           -0.5289     1.8773     0.9072 H       
  33 H33            0.5123    -0.3556    -0.8948 H       
  34 H34            0.5293    -0.3651     0.8851 H       
  35 H35            1.9645     2.0987    -2.1741 H       
  36 H36            2.5511     4.1655     0.1390 H       
  37 H37           -1.9804    -0.1319     0.8657 H       
  38 H38           -0.5052    -2.4720    -0.3559 H       
  39 H39           -2.2885    -3.0626    -1.6983 H       
  40 H40           -4.0256    -0.8093    -0.6738 H       
  41 H41           -3.2777    -4.0268     0.2787 H       
  42 H42           -1.6492    -3.5089     1.4681 H       
  43 H43           -2.4704    -1.8260    -5.6381 H       
  44 H44           -5.6811    -0.7835    -2.2065 H       
  45 H45           -6.6250     0.8620    -5.8088 H       
  46 H46           -9.0377     1.8656    -6.8320 H       
  47 H47          -11.4494     1.5748    -6.9678 H       
  48 H48          -12.5477    -0.3097    -5.8271 H       
  49 H49          -11.2185    -1.9179    -4.5384 H       
@<TRIPOS>BOND
   1    1    2 1
   2    1    3 1
   3    1   31 1
   4    1   32 1
   5    2    8 1
   6    2   33 1
   7    2   34 1
   8    3    4 1
   9    3    5 1
  10    3    6 2
  11    4   35 1
  12    5   36 1
  13    7    8 1
  14    7   11 1
  15    8    9 1
  16    8   37 1
  17    9   10 1
  18    9   13 1
  19    9   38 1
  20   10   11 1
  21   10   12 1
  22   10   39 1
  23   11   19 1
  24   11   40 1
  25   12   41 1
  26   13   42 1
  27   14   15 am
  28   14   19 am
  29   14   30 2
  30   15   16 am
  31   15   43 1
  32   16   17 1
  33   16   29 2
  34   17   18 2
  35   17   20 1
  36   18   19 1
  37   18   44 1
  38   20   21 2
  39   20   24 1
  40   21   22 1
  41   21   45 1
  42   22   23 ar
  43   22   25 ar
  44   23   24 1
  45   23   28 ar
  46   25   26 ar
  47   25   46 1
  48   26   27 ar
  49   26   47 1
  50   27   28 ar
  51   27   48 1
  52   28   49 1

#	End of record

