#	Name: ASD07300656
#	Creating user name:	WinNT
#	Creation time:	15. 06. 2019 21:10

#	Modifying user name:	WinNT
#	Modification time:	15. 06. 2019 21:10

#	Program:	/corina/corina34_cracker 3.40 0067  02.08.2006

@<TRIPOS>MOLECULE
ASD07300656
  36   38    0    0    0
SMALL
NO_CHARGES


@<TRIPOS>ATOM
   1 C1            -0.0178     1.4606     0.0101 C.2     
   2 C2             0.0021    -0.0041     0.0020 C.2     
   3 N3             1.1846     2.1273     0.0022 N.pl3   
   4 N4             1.1644    -0.6253    -0.0124 N.2     
   5 C5             2.3147     0.0563    -0.0197 C.2     
   6 C6             2.3489     1.4003    -0.0124 C.2     
   7 N7            -0.9911     2.3465     0.0293 N.2     
   8 C8            -0.4582     3.5820     0.0279 C.2     
   9 C9             0.9166     3.4501     0.0118 C.2     
  10 C10           -1.2081     4.8505     0.0458 C.2     
  11 O11           -0.6115     5.9092     0.0420 O.2     
  12 O12           -2.5555     4.8365     0.0664 O.3     
  13 N13           -1.1810    -0.7242     0.0099 N.pl3   
  14 C14           -1.1722    -2.1957     0.0019 C.3     
  15 C15           -2.0822    -2.6908     1.1318 C.3     
  16 O16           -3.3613    -2.0629     1.0153 O.3     
  17 C17           -3.3300    -0.6405     1.1557 C.3     
  18 C18           -2.4838    -0.0405     0.0327 C.3     
  19 Br19           2.1822     4.8551     0.0072 Br      
  20 C20           -3.2280     6.1233     0.0833 C.3     
  21 C21           -4.7425     5.9071     0.1054 C.3     
  22 H22            3.2461    -0.4903    -0.0312 H       
  23 H23            3.3000     1.9120    -0.0191 H       
  24 H24           -1.5445    -2.5598    -0.9556 H       
  25 H25           -0.1567    -2.5576     0.1632 H       
  26 H26           -2.1993    -3.7719     1.0577 H       
  27 H27           -1.6384    -2.4370     2.0944 H       
  28 H28           -4.3448    -0.2467     1.0988 H       
  29 H29           -2.8907    -0.3793     2.1184 H       
  30 H30           -2.3366     1.0241     0.2143 H       
  31 H31           -2.9905    -0.1840    -0.9217 H       
  32 H32           -2.9273     6.6788     0.9716 H       
  33 H33           -2.9546     6.6878    -0.8082 H       
  34 H34           -5.2473     6.8730     0.1180 H       
  35 H35           -5.0432     5.3515    -0.7829 H       
  36 H36           -5.0159     5.3425     0.9968 H       
@<TRIPOS>BOND
   1    1    2 1
   2    1    3 1
   3    1    7 2
   4    2    4 2
   5    2   13 1
   6    3    6 1
   7    3    9 1
   8    4    5 1
   9    5    6 2
  10    5   22 1
  11    6   23 1
  12    7    8 1
  13    8    9 2
  14    8   10 1
  15    9   19 1
  16   10   11 2
  17   10   12 1
  18   12   20 1
  19   13   14 1
  20   13   18 1
  21   14   15 1
  22   14   24 1
  23   14   25 1
  24   15   16 1
  25   15   26 1
  26   15   27 1
  27   16   17 1
  28   17   18 1
  29   17   28 1
  30   17   29 1
  31   18   30 1
  32   18   31 1
  33   20   21 1
  34   20   32 1
  35   20   33 1
  36   21   34 1
  37   21   35 1
  38   21   36 1

#	End of record

