#	Name: ASD03331562
#	Creating user name:	WinNT
#	Creation time:	15. 06. 2019 20:39

#	Modifying user name:	WinNT
#	Modification time:	15. 06. 2019 20:39

#	Program:	/corina/corina34_cracker 3.40 0067  02.08.2006

@<TRIPOS>MOLECULE
ASD03331562
  52   54    0    0    0
SMALL
NO_CHARGES


@<TRIPOS>ATOM
   1 C1             0.4149    -0.1297    -0.8917 C.2     
   2 N2             0.7074    -1.4002    -0.9052 N.2     
   3 C3             1.3838     0.9692    -0.7323 C.2     
   4 N4             1.0825     2.3019    -0.7174 N.pl3   
   5 C5             2.2495     2.9778    -0.5763 C.2     
   6 C6             3.2440     2.0542    -0.4776 C.2     
   7 N7             2.6812     0.8309    -0.5750 N.2     
   8 C8            -0.2493     2.9051    -0.8114 C.3     
   9 C9            -0.1295     4.3096    -1.4078 C.3     
  10 O10            0.1050     5.2609    -0.3677 O.3     
  11 C11            1.3076     5.0561     0.3688 C.3     
  12 C12            2.3807     4.4780    -0.5594 C.3     
  13 C13            4.6782     2.3383    -0.2916 C.2     
  14 O14            5.0649     3.4886    -0.2123 O.2     
  15 N15            5.5611     1.3233    -0.2093 N.am    
  16 C16            6.9867     1.6058    -0.0243 C.3     
  17 C17            7.8002     0.4557    -0.5596 C.2     
  18 N18            9.0451     0.6716    -1.0287 N.am    
  19 O19            7.3347    -0.6642    -0.5683 O.2     
  20 C20            7.2812     1.7888     1.4659 C.3     
  21 C21            6.8094     0.5528     2.2345 C.3     
  22 C22            9.8769    -0.4596    -1.4468 C.3     
  23 C23            8.7865     1.9721     1.6695 C.3     
  24 C24            6.5423     3.0243     1.9838 C.3     
  25 C25           -0.2882    -2.2397    -1.0579 C.2     
  26 C26           -1.5022    -1.6891    -1.1834 C.2     
  27 S27           -1.3236     0.0626    -1.1021 S.3     
  28 H28           -0.8823     2.2908    -1.4517 H       
  29 H29           -0.6906     2.9688     0.1833 H       
  30 H30            0.7002     4.3335    -2.1142 H       
  31 H31           -1.0536     4.5621    -1.9279 H       
  32 H32            1.6519     6.0074     0.7744 H       
  33 H33            1.1195     4.3592     1.1855 H       
  34 H34            3.3690     4.7542    -0.1921 H       
  35 H35            2.2408     4.8684    -1.5675 H       
  36 H36            5.2527     0.4059    -0.2725 H       
  37 H37            7.2491     2.5174    -0.5612 H       
  38 H38            9.3904     1.5761    -1.0896 H       
  39 H39            7.3359    -0.3274     1.8655 H       
  40 H40            7.0193     0.6832     3.2962 H       
  41 H41            5.7371     0.4222     2.0895 H       
  42 H42            9.3803    -0.9965    -2.2550 H       
  43 H43           10.8424    -0.0919    -1.7942 H       
  44 H44           10.0267    -1.1321    -0.6021 H       
  45 H45            9.1138     2.8800     1.1627 H       
  46 H46            9.0018     2.0530     2.7349 H       
  47 H47            9.3163     1.1140     1.2558 H       
  48 H48            5.4699     2.8937     1.8388 H       
  49 H49            6.7521     3.1547     3.0455 H       
  50 H50            6.8784     3.9048     1.4362 H       
  51 H51           -0.1383    -3.3090    -1.0812 H       
  52 H52           -2.4302    -2.2254    -1.3161 H       
@<TRIPOS>BOND
   1    1    2 2
   2    1    3 1
   3    1   27 1
   4    2   25 1
   5    3    4 1
   6    3    7 2
   7    4    5 1
   8    4    8 1
   9    5    6 2
  10    5   12 1
  11    6    7 1
  12    6   13 1
  13    8    9 1
  14    8   28 1
  15    8   29 1
  16    9   10 1
  17    9   30 1
  18    9   31 1
  19   10   11 1
  20   11   12 1
  21   11   32 1
  22   11   33 1
  23   12   34 1
  24   12   35 1
  25   13   14 2
  26   13   15 am
  27   15   16 1
  28   15   36 1
  29   16   20 1
  30   16   17 1
  31   16   37 1
  32   17   18 am
  33   17   19 2
  34   18   22 1
  35   18   38 1
  36   20   21 1
  37   20   23 1
  38   20   24 1
  39   21   39 1
  40   21   40 1
  41   21   41 1
  42   22   42 1
  43   22   43 1
  44   22   44 1
  45   23   45 1
  46   23   46 1
  47   23   47 1
  48   24   48 1
  49   24   49 1
  50   24   50 1
  51   25   26 2
  52   25   51 1
  53   26   27 1
  54   26   52 1

#	End of record

