#	Name: ASD01912225
#	Creating user name:	WinNT
#	Creation time:	15. 06. 2019 19:59

#	Modifying user name:	WinNT
#	Modification time:	15. 06. 2019 19:59

#	Program:	/corina/corina34_cracker 3.40 0067  02.08.2006

@<TRIPOS>MOLECULE
ASD01912225
  48   49    0    0    0
SMALL
NO_CHARGES


@<TRIPOS>ATOM
   1 N1            -0.0177     1.4646     0.0067 N.am    
   2 C2             0.0026    -0.0038     0.0052 C.3     
   3 C3             0.7685    -0.4858    -1.2333 C.3     
   4 C4             2.0815     0.2625    -1.3048 C.2     
   5 C5             2.0517     1.7742    -1.2509 C.3     
   6 C6             1.2536     2.1996    -0.0119 C.3     
   7 C7            -1.1897     2.1301     0.0193 C.2     
   8 O8            -2.2370     1.5186    -0.0677 O.2     
   9 N9            -1.2007     3.4734     0.1284 N.am    
  10 C10            3.2360    -0.3938    -1.4121 C.2     
  11 C11            4.4687     0.3320    -1.4784 C.1     
  12 C12            5.4793     0.9270    -1.5328 C.1     
  13 C13            6.7120     1.6527    -1.5991 C.ar    
  14 C14            7.9205     0.9592    -1.7116 C.ar    
  15 C15            9.1018     1.6751    -1.7745 C.ar    
  16 C16            9.0411     3.0616    -1.7231 C.ar    
  17 C17            7.8115     3.6846    -1.6114 C.ar    
  18 N18            6.6987     2.9819    -1.5586 N.ar    
  19 C19            7.7434     5.1890    -1.5554 C.3     
  20 C20           -2.4654     4.2061     0.0284 C.3     
  21 C21           -2.2003     5.7048     0.1853 C.3     
  22 C22           -3.5211     6.4699     0.0809 C.3     
  23 C23           -3.2560     7.9686     0.2377 C.3     
  24 H24            0.5007    -0.3632     0.9057 H       
  25 H25           -1.0187    -0.3833    -0.0261 H       
  26 H26            0.9599    -1.5558    -1.1531 H       
  27 H27            0.1817    -0.2837    -2.1294 H       
  28 H28            3.0692     2.1591    -1.1820 H       
  29 H29            1.5714     2.1640    -2.1484 H       
  30 H30            1.0559     3.2706    -0.0546 H       
  31 H31            1.8235     1.9667     0.8875 H       
  32 H32           -0.3712     3.9551     0.2731 H       
  33 H33            3.2421    -1.4731    -1.4491 H       
  34 H34            7.9315    -0.1201    -1.7486 H       
  35 H35           10.0509     1.1672    -1.8613 H       
  36 H36            9.9466     3.6484    -1.7696 H       
  37 H37            7.6515     5.5864    -2.5663 H       
  38 H38            6.8781     5.4919    -0.9659 H       
  39 H39            8.6514     5.5769    -1.0937 H       
  40 H40           -2.9188     4.0172    -0.9446 H       
  41 H41           -3.1417     3.8724     0.8154 H       
  42 H42           -1.7469     5.8937     1.1583 H       
  43 H43           -1.5239     6.0384    -0.6017 H       
  44 H44           -3.9745     6.2810    -0.8922 H       
  45 H45           -4.1975     6.1363     0.8678 H       
  46 H46           -2.5797     8.3023    -0.5492 H       
  47 H47           -4.1970     8.5137     0.1634 H       
  48 H48           -2.8026     8.1575     1.2108 H       
@<TRIPOS>BOND
   1    1    2 1
   2    1    6 1
   3    1    7 am
   4    2    3 1
   5    2   24 1
   6    2   25 1
   7    3    4 1
   8    3   26 1
   9    3   27 1
  10    4    5 1
  11    4   10 2
  12    5    6 1
  13    5   28 1
  14    5   29 1
  15    6   30 1
  16    6   31 1
  17    7    8 2
  18    7    9 am
  19    9   20 1
  20    9   32 1
  21   10   11 1
  22   10   33 1
  23   11   12 3
  24   12   13 1
  25   13   14 ar
  26   13   18 ar
  27   14   15 ar
  28   14   34 1
  29   15   16 ar
  30   15   35 1
  31   16   17 ar
  32   16   36 1
  33   17   18 ar
  34   17   19 1
  35   19   37 1
  36   19   38 1
  37   19   39 1
  38   20   21 1
  39   20   40 1
  40   20   41 1
  41   21   22 1
  42   21   42 1
  43   21   43 1
  44   22   23 1
  45   22   44 1
  46   22   45 1
  47   23   46 1
  48   23   47 1
  49   23   48 1

#	End of record

