#	Name: ASD09720066
#	Creating user name:	WinNT
#	Creation time:	15. 06. 2019 21:22

#	Modifying user name:	WinNT
#	Modification time:	15. 06. 2019 21:22

#	Program:	/corina/corina34_cracker 3.40 0067  02.08.2006

@<TRIPOS>MOLECULE
ASD09720066
  42   43    0    0    0
SMALL
NO_CHARGES


@<TRIPOS>ATOM
   1 C1             0.0870     1.5172     0.5232 C.2     
   2 C2             0.2268     0.1042     0.9053 C.2     
   3 N3             1.4036    -0.4314     0.9869 N.2     
   4 C4            -0.9988    -0.7210     1.2021 C.3     
   5 O5             2.5552     0.3439     0.7081 O.3     
   6 S6            -0.4989    -2.4046     1.6562 S.3     
   7 C7            -2.0379    -3.2062     1.9620 C.ar    
   8 C8            -2.0637    -4.5422     2.3437 C.ar    
   9 C9            -3.2716    -5.1671     2.5825 C.ar    
  10 C10           -4.4549    -4.4652     2.4418 C.ar    
  11 C11           -4.4332    -3.1356     2.0617 C.ar    
  12 C12           -3.2287    -2.5023     1.8277 C.ar    
  13 C13            1.0901     2.3455     0.0625 C.2     
  14 C14            0.5270     3.5969    -0.1801 C.2     
  15 N15           -0.7481     3.5484     0.1122 N.2     
  16 N16           -1.0614     2.2561     0.5516 N.pl3   
  17 C17            1.2645     4.8067    -0.6935 C.3     
  18 F18            1.2231     4.8195    -2.0918 F       
  19 F19            0.6591     5.9667    -0.1984 F       
  20 F20            2.5959     4.7570    -0.2668 F       
  21 C21           -2.3820     1.7842     0.9754 C.3     
  22 C22           -2.5792     2.0879     2.4619 C.3     
  23 C23           -3.9040     1.4855     2.9341 C.3     
  24 C24           -3.4637     2.4969     0.1613 C.3     
  25 H25           -1.5491    -0.2702     2.0279 H       
  26 H26           -1.6354    -0.7570     0.3180 H       
  27 H27            3.3869    -0.1417     0.7953 H       
  28 H28           -1.1400    -5.0912     2.4531 H       
  29 H29           -3.2924    -6.2054     2.8792 H       
  30 H30           -5.3983    -4.9566     2.6289 H       
  31 H31           -5.3592    -2.5907     1.9525 H       
  32 H32           -3.2124    -1.4640     1.5309 H       
  33 H33            2.1249     2.0732    -0.0832 H       
  34 H34           -2.4533     0.7089     0.8117 H       
  35 H35           -1.7587     1.6542     3.0334 H       
  36 H36           -2.5966     3.1673     2.6130 H       
  37 H37           -4.7246     1.9193     2.3626 H       
  38 H38           -3.8867     0.4062     2.7830 H       
  39 H39           -4.0445     1.7019     3.9931 H       
  40 H40           -3.3232     2.2805    -0.8977 H       
  41 H41           -4.4463     2.1458     0.4766 H       
  42 H42           -3.3924     3.5722     0.3250 H       
@<TRIPOS>BOND
   1    1    2 1
   2    1   13 2
   3    1   16 1
   4    2    3 2
   5    2    4 1
   6    3    5 1
   7    4    6 1
   8    4   25 1
   9    4   26 1
  10    5   27 1
  11    6    7 1
  12    7    8 ar
  13    7   12 ar
  14    8    9 ar
  15    8   28 1
  16    9   10 ar
  17    9   29 1
  18   10   11 ar
  19   10   30 1
  20   11   12 ar
  21   11   31 1
  22   12   32 1
  23   13   14 1
  24   13   33 1
  25   14   15 2
  26   14   17 1
  27   15   16 1
  28   16   21 1
  29   17   18 1
  30   17   19 1
  31   17   20 1
  32   21   22 1
  33   21   24 1
  34   21   34 1
  35   22   23 1
  36   22   35 1
  37   22   36 1
  38   23   37 1
  39   23   38 1
  40   23   39 1
  41   24   40 1
  42   24   41 1
  43   24   42 1

#	End of record

