#	Name: ASD01320076
#	Creating user name:	WinNT
#	Creation time:	15. 06. 2019 19:15

#	Modifying user name:	WinNT
#	Modification time:	15. 06. 2019 19:15

#	Program:	/corina/corina34_cracker 3.40 0067  02.08.2006

@<TRIPOS>MOLECULE
ASD01320076
  36   38    0    0    0
SMALL
NO_CHARGES


@<TRIPOS>ATOM
   1 P1            -0.0180     1.4758     0.0102 P.3     
   2 O2             0.0021    -0.0041     0.0020 O.2     
   3 O3             1.4924     2.0330    -0.0013 O.3     
   4 O4            -0.7967     2.0091    -1.2942 O.3     
   5 C5            -2.0945     1.5864     1.6883 C.3     
   6 O6            -0.7716     1.9950     1.3348 O.3     
   7 C7            -2.5045     2.2631     2.9978 C.3     
   8 O8            -2.6211     3.6768     2.7985 O.3     
   9 C9            -3.8855     1.7399     3.4477 C.3     
  10 O10           -3.7469     0.7593     4.4779 O.3     
  11 C11           -4.5625     3.0257     3.9959 C.3     
  12 O12           -4.1791     3.2721     5.3503 O.3     
  13 C13           -3.9724     4.0971     3.0448 C.3     
  14 N14           -6.6791     8.4447     3.9761 N.am    
  15 C15           -7.0374     7.3435     3.2689 C.2     
  16 N16           -6.2402     6.3225     3.1230 N.2     
  17 C17           -5.0165     6.3121     3.6702 C.2     
  18 C18           -4.5828     7.4149     4.4123 C.2     
  19 C19           -5.4624     8.5162     4.5607 C.2     
  20 O20           -5.1307     9.5010     5.1979 O.2     
  21 N21           -3.3292     7.1421     4.8430 N.2     
  22 C22           -2.9752     5.9633     4.4188 C.2     
  23 N23           -3.9863     5.4125     3.6896 N.pl3   
  24 H24            2.0070     1.7589    -0.7727 H       
  25 H25           -0.8486     2.9728    -1.3546 H       
  26 H26           -2.7873     1.8749     0.8978 H       
  27 H27           -2.1187     0.5041     1.8155 H       
  28 H28           -1.7611     2.0584     3.7682 H       
  29 H29           -4.4415     1.3355     2.6019 H       
  30 H30           -4.5870     0.3999     4.7945 H       
  31 H31           -5.6469     2.9696     3.9011 H       
  32 H32           -4.4348     2.5709     5.9652 H       
  33 H33           -4.5355     4.1262     2.1120 H       
  34 H34           -7.2983     9.1868     4.0594 H       
  35 H35           -8.0155     7.3118     2.8121 H       
  36 H36           -2.0231     5.4926     4.6150 H       
@<TRIPOS>BOND
   1    1    2 2
   2    1    3 1
   3    1    4 1
   4    1    6 1
   5    3   24 1
   6    4   25 1
   7    5    6 1
   8    5    7 1
   9    5   26 1
  10    5   27 1
  11    7    8 1
  12    7    9 1
  13    7   28 1
  14    8   13 1
  15    9   10 1
  16    9   11 1
  17    9   29 1
  18   10   30 1
  19   11   12 1
  20   11   13 1
  21   11   31 1
  22   12   32 1
  23   13   23 1
  24   13   33 1
  25   14   15 1
  26   14   19 am
  27   14   34 1
  28   15   16 2
  29   15   35 1
  30   16   17 1
  31   17   18 2
  32   17   23 1
  33   18   19 1
  34   18   21 1
  35   19   20 2
  36   21   22 2
  37   22   23 1
  38   22   36 1

#	End of record

