#	Name: ASD00069441
#	Creating user name:	WinNT
#	Creation time:	15. 06. 2019 18:29

#	Modifying user name:	WinNT
#	Modification time:	15. 06. 2019 18:29

#	Program:	/corina/corina34_cracker 3.40 0067  02.08.2006

@<TRIPOS>MOLECULE
ASD00069441
  67   72    0    0    0
SMALL
NO_CHARGES


@<TRIPOS>ATOM
   1 C1            -0.1546     1.2628    -0.2392 C.ar    
   2 C2            -0.0077    -0.0629    -0.5917 C.ar    
   3 C3             1.1833    -0.7214    -0.2727 C.ar    
   4 C4             2.1785    -0.0003     0.3940 C.ar    
   5 C5             1.9490     1.3226     0.7090 C.ar    
   6 N6             0.8098     1.9072     0.3897 N.ar    
   7 C7             3.0134     2.1112     1.4275 C.3     
   8 C8             1.3856    -2.1463    -0.6314 C.2     
   9 C9             0.5282    -2.9203    -1.3630 C.2     
  10 N10            1.0865    -4.1474    -1.4596 N.pl3   
  11 C11            2.2765    -4.1084    -0.7869 C.2     
  12 N12            2.4426    -2.8986    -0.3003 N.2     
  13 C13            3.2176    -5.2332    -0.6369 C.2     
  14 N14            4.3630    -5.0660     0.0535 N.am    
  15 C15            5.2062    -6.1596     0.2865 C.ar    
  16 O16            2.9605    -6.3120    -1.1362 O.2     
  17 C17            4.6708    -7.4309     0.4376 C.ar    
  18 C18            5.5038    -8.5094     0.6670 C.ar    
  19 C19            6.8725    -8.3271     0.7471 C.ar    
  20 C20            7.4158    -7.0632     0.5978 C.ar    
  21 C21            6.5857    -5.9749     0.3616 C.ar    
  22 F22            8.7531    -6.8886     0.6770 F       
  23 N23            7.1323    -4.6942     0.2096 N.3     
  24 C24            7.9600    -4.6156    -1.0008 C.3     
  25 C25            7.8959    -4.3030     1.4013 C.3     
  26 C26            8.3541    -2.8496     1.2609 C.3     
  27 C27            9.2227    -2.7122     0.0075 C.3     
  28 C28            8.4201    -3.1715    -1.2130 C.3     
  29 C29            9.6276    -1.2714    -0.1692 C.2     
  30 O30            8.9308    -0.3862     0.2799 O.2     
  31 N31           10.7642    -0.9666    -0.8263 N.am    
  32 C32           11.2575     0.4228    -0.9343 C.3     
  33 C33           11.8397     0.5807    -2.3513 C.3     
  34 N34           13.0348    -0.2664    -2.5429 N.3     
  35 C35           12.1114    -1.3916    -2.7962 C.3     
  36 C36           11.5946    -2.0025    -1.4765 C.3     
  37 C37           11.1312    -0.3453    -3.3560 C.3     
  38 H38           -1.0694     1.7814    -0.4854 H       
  39 H39           -0.8014    -0.5843    -1.1061 H       
  40 H40            3.1131    -0.4725     0.6587 H       
  41 H41            3.6691     2.5857     0.6975 H       
  42 H42            2.5437     2.8764     2.0455 H       
  43 H43            3.5972     1.4418     2.0593 H       
  44 H44           -0.4168    -2.6099    -1.7838 H       
  45 H45            0.7120    -4.9143    -1.9206 H       
  46 H46            4.6034    -4.1881     0.3889 H       
  47 H47            3.6026    -7.5775     0.3761 H       
  48 H48            5.0847    -9.4978     0.7846 H       
  49 H49            7.5190    -9.1733     0.9270 H       
  50 H50            8.8309    -5.2613    -0.8879 H       
  51 H51            7.3761    -4.9409    -1.8618 H       
  52 H52            7.2655    -4.4013     2.2851 H       
  53 H53            8.7671    -4.9502     1.5031 H       
  54 H54            7.4830    -2.2003     1.1730 H       
  55 H55            8.9341    -2.5645     2.1386 H       
  56 H56           10.1135    -3.3317     0.1118 H       
  57 H57            9.0473    -3.1164    -2.1027 H       
  58 H58            7.5501    -2.5273    -1.3398 H       
  59 H59           10.4344     1.1226    -0.7898 H       
  60 H60           12.0342     0.6011    -0.1906 H       
  61 H61           11.9570     1.6175    -2.6664 H       
  62 H62           13.5298    -0.0086    -3.3835 H       
  63 H63           12.4734    -2.1298    -3.5118 H       
  64 H64           12.4349    -2.2704    -0.8359 H       
  65 H65           10.9890    -2.8842    -1.6862 H       
  66 H66           10.0846    -0.5419    -3.1236 H       
  67 H67           11.3007    -0.0862    -4.4011 H       
@<TRIPOS>BOND
   1    1    2 ar
   2    1    6 ar
   3    1   38 1
   4    2    3 ar
   5    2   39 1
   6    3    4 ar
   7    3    8 1
   8    4    5 ar
   9    4   40 1
  10    5    6 ar
  11    5    7 1
  12    7   41 1
  13    7   42 1
  14    7   43 1
  15    8    9 2
  16    8   12 1
  17    9   10 1
  18    9   44 1
  19   10   11 1
  20   10   45 1
  21   11   12 2
  22   11   13 1
  23   13   14 am
  24   13   16 2
  25   14   15 1
  26   14   46 1
  27   15   17 ar
  28   15   21 ar
  29   17   18 ar
  30   17   47 1
  31   18   19 ar
  32   18   48 1
  33   19   20 ar
  34   19   49 1
  35   20   21 ar
  36   20   22 1
  37   21   23 1
  38   23   24 1
  39   23   25 1
  40   24   28 1
  41   24   50 1
  42   24   51 1
  43   25   26 1
  44   25   52 1
  45   25   53 1
  46   26   27 1
  47   26   54 1
  48   26   55 1
  49   27   28 1
  50   27   29 1
  51   27   56 1
  52   28   57 1
  53   28   58 1
  54   29   30 2
  55   29   31 am
  56   31   32 1
  57   31   36 1
  58   32   33 1
  59   32   59 1
  60   32   60 1
  61   33   34 1
  62   33   37 1
  63   33   61 1
  64   34   35 1
  65   34   62 1
  66   35   36 1
  67   35   37 1
  68   35   63 1
  69   36   64 1
  70   36   65 1
  71   37   66 1
  72   37   67 1

#	End of record

