#	Name: ASD01812724
#	Creating user name:	WinNT
#	Creation time:	15. 06. 2019 19:29

#	Modifying user name:	WinNT
#	Modification time:	15. 06. 2019 19:29

#	Program:	/corina/corina34_cracker 3.40 0067  02.08.2006

@<TRIPOS>MOLECULE
ASD01812724
  59   63    0    0    0
SMALL
NO_CHARGES


@<TRIPOS>ATOM
   1 C1             0.0577     1.4304    -0.6145 C.ar    
   2 C2             0.1013     0.0681    -0.8343 C.ar    
   3 C3             1.2833    -0.6330    -0.6482 C.ar    
   4 C4             2.4191     0.0258    -0.2438 C.ar    
   5 C5             2.3933     1.4052    -0.0169 C.ar    
   6 C6             1.1963     2.1093    -0.2059 C.ar    
   7 C7             3.8294    -0.4261     0.0430 C.3     
   8 N8             4.5723     0.7762     0.4378 N.am    
   9 C9             3.7391     1.8304     0.4017 C.2     
  10 C10            5.9884     0.8203     0.8104 C.3     
  11 C11            6.8241     1.0650    -0.4196 C.ar    
  12 C12            7.1225     2.3598    -0.8036 C.ar    
  13 C13            7.8879     2.5895    -1.9290 C.ar    
  14 C14            8.3600     1.5144    -2.6785 C.ar    
  15 C15            8.0565     0.2123    -2.2873 C.ar    
  16 C16            7.2947    -0.0063    -1.1572 C.ar    
  17 O17            1.1515     3.4479     0.0091 O.3     
  18 O18            4.0523     2.9728     0.6761 O.2     
  19 C19            8.8819     2.6058    -4.9137 C.2     
  20 C20            9.1833     1.7554    -3.8903 C.2     
  21 C21           10.4176     1.1479    -4.1923 C.2     
  22 N22           10.8298     1.6152    -5.3408 N.2     
  23 N23            9.8831     2.5319    -5.8137 N.pl3   
  24 C24           11.1377     0.1356    -3.3391 C.3     
  25 C25            9.9658     3.2812    -7.0699 C.3     
  26 C26           -0.1276     4.0779    -0.0868 C.3     
  27 C27           -0.1314     5.3599     0.7516 C.3     
  28 C28           -1.4777     6.0684     0.5802 C.3     
  29 O29           -1.6961     6.3448    -0.8047 O.3     
  30 C30           -1.7496     5.1800    -1.6308 C.3     
  31 C31           -0.4142     4.4358    -1.5483 C.3     
  32 O32            0.0631     5.0306     2.1285 O.3     
  33 H33           -0.8654     1.9703    -0.7655 H       
  34 H34           -0.7890    -0.4540    -1.1523 H       
  35 H35            1.3109    -1.6987    -0.8211 H       
  36 H36            3.8323    -1.1522     0.8559 H       
  37 H37            4.2721    -0.8631    -0.8521 H       
  38 H38            6.1508     1.6261     1.5263 H       
  39 H39            6.2751    -0.1297     1.2614 H       
  40 H40            6.7556     3.1926    -0.2220 H       
  41 H41            8.1200     3.6009    -2.2282 H       
  42 H42            8.4201    -0.6247    -2.8648 H       
  43 H43            7.0623    -1.0154    -0.8507 H       
  44 H44            7.9989     3.2228    -4.9912 H       
  45 H45           10.8184    -0.8683    -3.6191 H       
  46 H46           12.2127     0.2308    -3.4918 H       
  47 H47           10.9027     0.3121    -2.2895 H       
  48 H48           10.4790     4.2270    -6.8957 H       
  49 H49           10.5195     2.6975    -7.8053 H       
  50 H50            8.9606     3.4767    -7.4432 H       
  51 H51           -0.8969     3.3991     0.2814 H       
  52 H52            0.6712     6.0168     0.4163 H       
  53 H53           -2.2761     5.4269     0.9532 H       
  54 H54           -1.4705     7.0032     1.1407 H       
  55 H55           -2.5515     4.5269    -1.2868 H       
  56 H56           -1.9382     5.4748    -2.6631 H       
  57 H57            0.3827     5.0740    -1.9300 H       
  58 H58           -0.4681     3.5238    -2.1428 H       
  59 H59            0.0716     5.7966     2.7186 H       
@<TRIPOS>BOND
   1    1    2 ar
   2    1    6 ar
   3    1   33 1
   4    2    3 ar
   5    2   34 1
   6    3    4 ar
   7    3   35 1
   8    4    7 1
   9    4    5 ar
  10    5    6 ar
  11    5    9 1
  12    6   17 1
  13    7    8 1
  14    7   36 1
  15    7   37 1
  16    8    9 am
  17    8   10 1
  18    9   18 2
  19   10   11 1
  20   10   38 1
  21   10   39 1
  22   11   12 ar
  23   11   16 ar
  24   12   13 ar
  25   12   40 1
  26   13   14 ar
  27   13   41 1
  28   14   15 ar
  29   14   20 1
  30   15   16 ar
  31   15   42 1
  32   16   43 1
  33   17   26 1
  34   19   20 2
  35   19   23 1
  36   19   44 1
  37   20   21 1
  38   21   22 2
  39   21   24 1
  40   22   23 1
  41   23   25 1
  42   24   45 1
  43   24   46 1
  44   24   47 1
  45   25   48 1
  46   25   49 1
  47   25   50 1
  48   26   27 1
  49   26   31 1
  50   26   51 1
  51   27   28 1
  52   27   32 1
  53   27   52 1
  54   28   29 1
  55   28   53 1
  56   28   54 1
  57   29   30 1
  58   30   31 1
  59   30   55 1
  60   30   56 1
  61   31   57 1
  62   31   58 1
  63   32   59 1

#	End of record

