#	Name: ASD01917794
#	Creating user name:	WinNT
#	Creation time:	15. 06. 2019 20:10

#	Modifying user name:	WinNT
#	Modification time:	15. 06. 2019 20:10

#	Program:	/corina/corina34_cracker 3.40 0067  02.08.2006

@<TRIPOS>MOLECULE
ASD01917794
  43   46    0    0    0
SMALL
NO_CHARGES


@<TRIPOS>ATOM
   1 C1             0.0116     1.2559    -0.1071 C.2     
   2 C2            -0.0145    -0.0905    -0.0808 C.2     
   3 C3            -1.2715    -0.9200    -0.0116 C.3     
   4 C4            -2.4254    -0.0316     0.4699 C.3     
   5 N5            -2.3859     1.2461    -0.2573 N.am    
   6 C6            -1.2198     2.1265    -0.0606 C.3     
   7 C7            -3.3897     1.6029    -1.0828 C.2     
   8 O8            -4.2806     0.8151    -1.3319 O.2     
   9 C9            -3.4069     2.9558    -1.6865 C.ar    
  10 O10            1.2955     1.6318    -0.1737 O.3     
  11 C11            2.0432     0.5170    -0.1842 C.2     
  12 N12            1.2535    -0.5204    -0.1278 N.2     
  13 C13            3.5480     0.4709    -0.2507 C.3     
  14 O14            3.9634     0.4291    -1.6173 O.3     
  15 C15            5.3008     0.3843    -1.8546 C.ar    
  16 C16            5.7742     0.3422    -3.1580 C.ar    
  17 C17            7.1341     0.2966    -3.3966 C.ar    
  18 C18            8.0232     0.2931    -2.3377 C.ar    
  19 C19            7.5539     0.3346    -1.0377 C.ar    
  20 C20            6.1951     0.3864    -0.7940 C.ar    
  21 C21           -4.3734     3.2765    -2.6547 C.ar    
  22 C22           -4.3699     4.5611    -3.2109 C.ar    
  23 C23           -3.4109     5.4608    -2.7804 C.ar    
  24 C24           -2.4900     5.0694    -1.8205 C.ar    
  25 N25           -2.5140     3.8585    -1.3063 N.ar    
  26 C26           -5.3439     2.3069    -3.0652 C.1     
  27 N27           -6.1138     1.5377    -3.3909 N.1     
  28 H28           -1.5031    -1.3154    -1.0006 H       
  29 H29           -1.1278    -1.7431     0.6884 H       
  30 H30           -3.3748    -0.5312     0.2772 H       
  31 H31           -2.3207     0.1542     1.5388 H       
  32 H32           -1.2877     2.6210     0.9084 H       
  33 H33           -1.1786     2.8708    -0.8558 H       
  34 H34            3.9602     1.3596     0.2273 H       
  35 H35            3.9075    -0.4192     0.2657 H       
  36 H36            5.0801     0.3445    -3.9854 H       
  37 H37            7.5031     0.2634    -4.4110 H       
  38 H38            9.0860     0.2575    -2.5262 H       
  39 H39            8.2504     0.3310    -0.2123 H       
  40 H40            5.8290     0.4189     0.2215 H       
  41 H41           -5.0974     4.8428    -3.9577 H       
  42 H42           -3.3797     6.4600    -3.1891 H       
  43 H43           -1.7419     5.7727    -1.4858 H       
@<TRIPOS>BOND
   1    1    2 2
   2    1   10 1
   3    1    6 1
   4    2    3 1
   5    2   12 1
   6    3    4 1
   7    3   28 1
   8    3   29 1
   9    4    5 1
  10    4   30 1
  11    4   31 1
  12    5    6 1
  13    5    7 am
  14    6   32 1
  15    6   33 1
  16    7    8 2
  17    7    9 1
  18    9   21 ar
  19    9   25 ar
  20   10   11 1
  21   11   12 2
  22   11   13 1
  23   13   14 1
  24   13   34 1
  25   13   35 1
  26   14   15 1
  27   15   16 ar
  28   15   20 ar
  29   16   17 ar
  30   16   36 1
  31   17   18 ar
  32   17   37 1
  33   18   19 ar
  34   18   38 1
  35   19   20 ar
  36   19   39 1
  37   20   40 1
  38   21   26 1
  39   21   22 ar
  40   22   23 ar
  41   22   41 1
  42   23   24 ar
  43   23   42 1
  44   24   25 ar
  45   24   43 1
  46   26   27 3

#	End of record

