#	Name: ASD09900010
#	Creating user name:	WinNT
#	Creation time:	15. 06. 2019 21:24

#	Modifying user name:	WinNT
#	Modification time:	15. 06. 2019 21:24

#	Program:	/corina/corina34_cracker 3.40 0067  02.08.2006

@<TRIPOS>MOLECULE
ASD09900010
  34   35    0    0    0
SMALL
NO_CHARGES


@<TRIPOS>ATOM
   1 C1            -0.0165     1.3620     0.0095 C.ar    
   2 C2             0.0021    -0.0041     0.0020 C.ar    
   3 C3             1.2071    -0.6929    -0.0127 C.ar    
   4 C4             2.4059    -0.0132    -0.0205 C.ar    
   5 C5             1.1874     2.0725     0.0019 C.ar    
   6 C6             1.5226     3.4950     0.0063 C.2     
   7 C7             2.4124     1.3776    -0.0136 C.ar    
   8 N8             3.4197     2.3167    -0.0187 N.pl3   
   9 C9             2.8771     3.5822    -0.0062 C.2     
  10 C10            3.6493     4.8396    -0.0075 C.2     
  11 C11            3.0128     6.0147     0.0041 C.2     
  12 N12            5.0452     4.8018    -0.0210 N.pl3   
  13 C13            5.8118     6.0502    -0.0224 C.3     
  14 C14            7.3078     5.7300    -0.0381 C.3     
  15 C15            8.1085     7.0338    -0.0395 C.3     
  16 C16            9.6045     6.7135    -0.0553 C.3     
  17 H17           -0.9579     1.8911     0.0169 H       
  18 H18           -0.9283    -0.5524     0.0080 H       
  19 H19            1.2051    -1.7729    -0.0178 H       
  20 H20            3.3378    -0.5589    -0.0316 H       
  21 H21            0.8254     4.3197     0.0174 H       
  22 H22            4.3688     2.1167    -0.0287 H       
  23 H23            3.5780     6.9350     0.0031 H       
  24 H24            1.9333     6.0439     0.0145 H       
  25 H25            5.5072     3.9489    -0.0294 H       
  26 H26            5.5556     6.6329    -0.9072 H       
  27 H27            5.5726     6.6245     0.8727 H       
  28 H28            7.5640     5.1473     0.8467 H       
  29 H29            7.5471     5.1557    -0.9331 H       
  30 H30            7.8523     7.6165    -0.9244 H       
  31 H31            7.8692     7.6080     0.8555 H       
  32 H32           10.1749     7.6424    -0.0563 H       
  33 H33            9.8607     6.1308     0.8296 H       
  34 H34            9.8438     6.1393    -0.9503 H       
@<TRIPOS>BOND
   1    1    2 ar
   2    1    5 ar
   3    1   17 1
   4    2    3 ar
   5    2   18 1
   6    3    4 ar
   7    3   19 1
   8    4    7 ar
   9    4   20 1
  10    5    7 ar
  11    5    6 1
  12    6    9 2
  13    6   21 1
  14    7    8 1
  15    8    9 1
  16    8   22 1
  17    9   10 1
  18   10   11 2
  19   10   12 1
  20   11   23 1
  21   11   24 1
  22   12   13 1
  23   12   25 1
  24   13   14 1
  25   13   26 1
  26   13   27 1
  27   14   15 1
  28   14   28 1
  29   14   29 1
  30   15   16 1
  31   15   30 1
  32   15   31 1
  33   16   32 1
  34   16   33 1
  35   16   34 1

#	End of record

