#	Name: ASD02560071
#	Creating user name:	WinNT
#	Creation time:	15. 06. 2019 20:24

#	Modifying user name:	WinNT
#	Modification time:	15. 06. 2019 20:24

#	Program:	/corina/corina34_cracker 3.40 0067  02.08.2006

@<TRIPOS>MOLECULE
ASD02560071
  52   53    0    0    0
SMALL
NO_CHARGES


@<TRIPOS>ATOM
   1 C1            -0.6103     1.9261     0.9341 C.ar    
   2 C2            -0.5173     0.5870     0.6046 C.ar    
   3 C3            -1.6459    -0.2111     0.6297 C.ar    
   4 C4            -2.8672     0.3300     0.9848 C.ar    
   5 C5            -2.9601     1.6693     1.3152 C.ar    
   6 C6            -1.8310     2.4662     1.2943 C.ar    
   7 C7             0.6200     2.7960     0.9066 C.3     
   8 C8            -1.5447    -1.6709     0.2696 C.3     
   9 C9            -1.2103    -2.4705     1.5024 C.2     
  10 C10           -2.2064    -2.9411     2.3129 C.2     
  11 C11           -1.8647    -3.6876     3.4620 C.2     
  12 N12           -0.5706    -3.9275     3.7472 N.am    
  13 C13            0.4184    -3.4585     2.9397 C.2     
  14 C14            0.1258    -2.7454     1.8287 C.2     
  15 C15            1.2366    -2.2348     0.9475 C.3     
  16 C16            1.4990    -3.2396    -0.1761 C.3     
  17 C17            1.8577    -3.7422     3.2843 C.3     
  18 N18           -3.5490    -2.6854     2.0073 N.pl3   
  19 C19           -4.1504    -3.2681     0.8052 C.3     
  20 C20           -4.8706    -4.5667     1.1736 C.3     
  21 O21           -5.9677    -4.2734     2.0410 O.3     
  22 C22           -6.7114    -5.4241     2.4470 C.3     
  23 C23           -4.3520    -1.8351     2.8896 C.3     
  24 O24           -2.7415    -4.1146     4.1962 O.2     
  25 H25            0.4370     0.1642     0.3272 H       
  26 H26           -3.7490    -0.2932     1.0037 H       
  27 H27           -3.9144     2.0922     1.5923 H       
  28 H28           -1.9035     3.5124     1.5524 H       
  29 H29            0.7324     3.2352    -0.0846 H       
  30 H30            0.5201     3.5900     1.6466 H       
  31 H31            1.4973     2.1920     1.1380 H       
  32 H32           -2.4968    -2.0116    -0.1372 H       
  33 H33           -0.7613    -1.8078    -0.4758 H       
  34 H34           -0.3411    -4.4405     4.5378 H       
  35 H35            0.9474    -1.2760     0.5172 H       
  36 H36            2.1422    -2.1085     1.5408 H       
  37 H37            2.3024    -2.8703    -0.8135 H       
  38 H38            1.7882    -4.1984     0.2542 H       
  39 H39            0.5934    -3.3660    -0.7694 H       
  40 H40            1.9029    -4.3280     4.2024 H       
  41 H41            2.3220    -4.3024     2.4727 H       
  42 H42            2.3894    -2.8014     3.4270 H       
  43 H43           -4.8653    -2.5644     0.3789 H       
  44 H44           -3.3697    -3.4803     0.0747 H       
  45 H45           -5.2418    -5.0459     0.2676 H       
  46 H46           -4.1758    -5.2365     1.6803 H       
  47 H47           -7.5260    -5.1173     3.1031 H       
  48 H48           -7.1208    -5.9211     1.5675 H       
  49 H49           -6.0548    -6.1116     2.9802 H       
  50 H50           -4.1956    -0.7889     2.6269 H       
  51 H51           -5.4066    -2.0851     2.7739 H       
  52 H52           -4.0512    -1.9988     3.9244 H       
@<TRIPOS>BOND
   1    1    2 ar
   2    1    7 1
   3    1    6 ar
   4    2    3 ar
   5    2   25 1
   6    3    4 ar
   7    3    8 1
   8    4    5 ar
   9    4   26 1
  10    5    6 ar
  11    5   27 1
  12    6   28 1
  13    7   29 1
  14    7   30 1
  15    7   31 1
  16    8    9 1
  17    8   32 1
  18    8   33 1
  19    9   10 2
  20    9   14 1
  21   10   11 1
  22   10   18 1
  23   11   12 am
  24   11   24 2
  25   12   13 1
  26   12   34 1
  27   13   14 2
  28   13   17 1
  29   14   15 1
  30   15   16 1
  31   15   35 1
  32   15   36 1
  33   16   37 1
  34   16   38 1
  35   16   39 1
  36   17   40 1
  37   17   41 1
  38   17   42 1
  39   18   19 1
  40   18   23 1
  41   19   20 1
  42   19   43 1
  43   19   44 1
  44   20   21 1
  45   20   45 1
  46   20   46 1
  47   21   22 1
  48   22   47 1
  49   22   48 1
  50   22   49 1
  51   23   50 1
  52   23   51 1
  53   23   52 1

#	End of record

