#	Name: ASD01510106
#	Creating user name:	WinNT
#	Creation time:	15. 06. 2019 19:21

#	Modifying user name:	WinNT
#	Modification time:	15. 06. 2019 19:21

#	Program:	/corina/corina34_cracker 3.40 0067  02.08.2006

@<TRIPOS>MOLECULE
ASD01510106
  54   57    0    0    0
SMALL
NO_CHARGES


@<TRIPOS>ATOM
   1 C1             0.9868     1.2498     0.2372 C.3     
   2 O2             0.7935    -0.1633     0.1482 O.3     
   3 C3            -0.4651    -0.6276     0.3565 C.ar    
   4 N4            -1.4404     0.2233     0.6271 N.ar    
   5 C5            -2.6827    -0.1874     0.8369 C.ar    
   6 C6            -3.0049    -1.5370     0.7793 C.ar    
   7 C7            -2.0103    -2.4599     0.4983 C.ar    
   8 C8            -0.7178    -1.9960     0.2774 C.ar    
   9 S9             0.5859    -3.1248    -0.0844 S.3     
  10 C10           -0.1874    -4.6968     0.1036 C.ar    
  11 C11           -0.7435    -5.3353    -0.9990 C.ar    
  12 C12           -1.3494    -6.5680    -0.8520 C.ar    
  13 C13           -1.4054    -7.1701     0.3903 C.ar    
  14 C14           -0.8516    -6.5374     1.4968 C.ar    
  15 C15           -0.2372    -5.3024     1.3525 C.ar    
  16 N16           -0.9089    -7.1484     2.7543 N.am    
  17 C17           -0.8521    -8.4912     2.8543 C.2     
  18 O18           -0.6575    -9.1653     1.8650 O.2     
  19 C19           -1.0304    -9.1551     4.1954 C.3     
  20 C20           -0.9552   -10.6825     4.2431 C.3     
  21 C21            0.1901    -9.8421     4.8114 C.3     
  22 N22           -3.6773     0.7460     1.1193 N.3     
  23 C23           -3.1307     2.1100     1.1341 C.3     
  24 C24           -4.2661     3.1092     1.3682 C.3     
  25 N25           -4.9340     2.7987     2.6399 N.3     
  26 C26           -5.4806     1.4347     2.6251 C.3     
  27 C27           -4.3452     0.4355     2.3910 C.3     
  28 C28           -5.9830     3.7831     2.9377 C.3     
  29 H29            2.0344     1.4857     0.0503 H       
  30 H30            0.3638     1.7492    -0.5048 H       
  31 H31            0.7095     1.5923     1.2342 H       
  32 H32           -4.0198    -1.8637     0.9519 H       
  33 H33           -2.2344    -3.5152     0.4481 H       
  34 H34           -0.7020    -4.8670    -1.9714 H       
  35 H35           -1.7807    -7.0621    -1.7101 H       
  36 H36           -1.8805    -8.1336     0.5017 H       
  37 H37            0.1939    -4.8088     2.2109 H       
  38 H38           -0.9896    -6.6054     3.5540 H       
  39 H39           -1.7279    -8.6641     4.8741 H       
  40 H40           -1.6029   -11.1963     4.9534 H       
  41 H41           -0.7768   -11.2072     3.3045 H       
  42 H42            1.1219    -9.8139     4.2467 H       
  43 H43            0.2958    -9.8030     5.8956 H       
  44 H44           -2.3970     2.1990     1.9353 H       
  45 H45           -2.6525     2.3205     0.1775 H       
  46 H46           -3.8589     4.1195     1.4085 H       
  47 H47           -4.9860     3.0392     0.5528 H       
  48 H48           -5.9588     1.2242     3.5817 H       
  49 H49           -6.2143     1.3457     1.8240 H       
  50 H50           -4.7524    -0.5748     2.3507 H       
  51 H51           -3.6253     0.5055     3.2064 H       
  52 H52           -6.7267     3.7737     2.1409 H       
  53 H53           -6.4610     3.5296     3.8839 H       
  54 H54           -5.5396     4.7762     3.0092 H       
@<TRIPOS>BOND
   1    1    2 1
   2    1   29 1
   3    1   30 1
   4    1   31 1
   5    2    3 1
   6    3    4 ar
   7    3    8 ar
   8    4    5 ar
   9    5    6 ar
  10    5   22 1
  11    6    7 ar
  12    6   32 1
  13    7    8 ar
  14    7   33 1
  15    8    9 1
  16    9   10 1
  17   10   11 ar
  18   10   15 ar
  19   11   12 ar
  20   11   34 1
  21   12   13 ar
  22   12   35 1
  23   13   14 ar
  24   13   36 1
  25   14   15 ar
  26   14   16 1
  27   15   37 1
  28   16   17 am
  29   16   38 1
  30   17   18 2
  31   17   19 1
  32   19   20 1
  33   19   21 1
  34   19   39 1
  35   20   21 1
  36   20   40 1
  37   20   41 1
  38   21   42 1
  39   21   43 1
  40   22   23 1
  41   22   27 1
  42   23   24 1
  43   23   44 1
  44   23   45 1
  45   24   25 1
  46   24   46 1
  47   24   47 1
  48   25   26 1
  49   25   28 1
  50   26   27 1
  51   26   48 1
  52   26   49 1
  53   27   50 1
  54   27   51 1
  55   28   52 1
  56   28   53 1
  57   28   54 1

#	End of record

