#	Name: ASD01903304
#	Creating user name:	WinNT
#	Creation time:	15. 06. 2019 19:54

#	Modifying user name:	WinNT
#	Modification time:	15. 06. 2019 19:54

#	Program:	/corina/corina34_cracker 3.40 0067  02.08.2006

@<TRIPOS>MOLECULE
ASD01903304
  30   33    0    0    0
SMALL
NO_CHARGES


@<TRIPOS>ATOM
   1 N1            -0.0111     0.9658     0.0074 N.pl3   
   2 H2             0.0458    -0.0025     0.0035 H       
   3 C3             1.1473     1.7287    -0.0089 C.2     
   4 C4            -1.2547     1.5896     0.0234 C.ar    
   5 N5            -1.3261     2.9081     0.1244 N.ar    
   6 C6            -2.4859     3.5390     0.1428 C.ar    
   7 C7            -3.6745     2.8388     0.0564 C.ar    
   8 C8            -3.6419     1.4551    -0.0507 C.ar    
   9 C9            -2.4114     0.8231    -0.0726 C.ar    
  10 S10            2.7862     1.0922     0.0954 S.3     
  11 C11            3.4307     2.7225     0.0037 C.2     
  12 C12            2.3833     3.5920    -0.1091 C.2     
  13 N13            1.1919     3.0215    -0.1090 N.2     
  14 C14            4.8749     3.1458     0.0515 C.3     
  15 C15            5.1132     4.4154    -0.7673 C.3     
  16 C16            4.0091     5.4120    -0.5431 C.2     
  17 C17            2.7172     5.0425    -0.2443 C.2     
  18 N18            4.0328     6.7510    -0.5831 N.pl3   
  19 N19            2.7356     7.2216    -0.3216 N.2     
  20 C20            1.9478     6.1901    -0.1200 C.2     
  21 Cl21          -2.5183     5.2694     0.2776 Cl      
  22 H22           -4.6187     3.3626     0.0725 H       
  23 H23           -4.5566     0.8851    -0.1193 H       
  24 H24           -2.3499    -0.2520    -0.1551 H       
  25 H25            5.1576     3.3318     1.0877 H       
  26 H26            5.4950     2.3430    -0.3472 H       
  27 H27            6.0632     4.8602    -0.4710 H       
  28 H28            5.1537     4.1572    -1.8255 H       
  29 H29            4.8117     7.3008    -0.7618 H       
  30 H30            0.8917     6.2284     0.1027 H       
@<TRIPOS>BOND
   1    1    2 1
   2    1    3 1
   3    1    4 1
   4    3   10 1
   5    3   13 2
   6    4    5 ar
   7    4    9 ar
   8    5    6 ar
   9    6    7 ar
  10    6   21 1
  11    7    8 ar
  12    7   22 1
  13    8    9 ar
  14    8   23 1
  15    9   24 1
  16   10   11 1
  17   11   12 2
  18   11   14 1
  19   12   13 1
  20   12   17 1
  21   14   15 1
  22   14   25 1
  23   14   26 1
  24   15   16 1
  25   15   27 1
  26   15   28 1
  27   16   17 2
  28   16   18 1
  29   17   20 1
  30   18   19 1
  31   18   29 1
  32   19   20 2
  33   20   30 1

#	End of record

