#	Name: ASD00192031
#	Creating user name:	WinNT
#	Creation time:	15. 06. 2019 18:33

#	Modifying user name:	WinNT
#	Modification time:	15. 06. 2019 18:33

#	Program:	/corina/corina34_cracker 3.40 0067  02.08.2006

@<TRIPOS>MOLECULE
ASD00192031
  19   20    0    0    0
SMALL
NO_CHARGES


@<TRIPOS>ATOM
   1 N1            -0.0157     1.3070     0.0092 N.ar    
   2 C2             0.0021    -0.0041     0.0020 C.ar    
   3 C3             1.1955    -0.7211    -0.0128 C.ar    
   4 C4             2.3906    -0.0565    -0.0206 C.ar    
   5 C5             2.3672     1.3525    -0.0132 C.ar    
   6 C6             3.5528     2.1033    -0.0209 C.ar    
   7 C7             3.4881     3.4637    -0.0140 C.ar    
   8 C8             2.2598     4.1205     0.0012 C.ar    
   9 C9             1.0907     3.4234     0.0095 C.ar    
  10 C10            1.1166     2.0182     0.0022 C.ar    
  11 Cl11           3.8942    -0.9240    -0.0384 Cl      
  12 N12            1.1707    -2.2011    -0.0195 N.pl3   
  13 O13            0.1059    -2.7923    -0.0122 O.2     
  14 O14            2.2151    -2.8276    -0.0324 O.2     
  15 H15           -0.9342    -0.5423     0.0081 H       
  16 H16            4.5111     1.6053    -0.0320 H       
  17 H17            4.4010     4.0407    -0.0199 H       
  18 H18            2.2346     5.2002     0.0068 H       
  19 H19            0.1467     3.9481     0.0216 H       
@<TRIPOS>BOND
   1    1    2 ar
   2    1   10 ar
   3    2    3 ar
   4    2   15 1
   5    3    4 ar
   6    3   12 1
   7    4    5 ar
   8    4   11 1
   9    5    6 ar
  10    5   10 ar
  11    6    7 ar
  12    6   16 1
  13    7    8 ar
  14    7   17 1
  15    8    9 ar
  16    8   18 1
  17    9   10 ar
  18    9   19 1
  19   12   13 2
  20   12   14 2

#	End of record

