#	Name: ASD01811374
#	Creating user name:	WinNT
#	Creation time:	15. 06. 2019 19:26

#	Modifying user name:	WinNT
#	Modification time:	15. 06. 2019 19:26

#	Program:	/corina/corina34_cracker 3.40 0067  02.08.2006

@<TRIPOS>MOLECULE
ASD01811374
  23   23    0    0    0
SMALL
NO_CHARGES


@<TRIPOS>ATOM
   1 C1            -0.0180     1.4744     0.0101 C.2     
   2 C2             0.0021    -0.0041     0.0020 C.ar    
   3 C3             1.2181    -0.6873    -0.0133 C.ar    
   4 C4             1.2288    -2.0737    -0.0209 C.ar    
   5 C5             0.0302    -2.7779    -0.0132 C.ar    
   6 C6            -1.1745    -2.1007     0.0014 C.ar    
   7 C7            -1.1956    -0.7206     0.0154 C.ar    
   8 O8             1.0263     2.0964     0.0035 O.2     
   9 N9            -1.1942     2.1323     0.0193 N.am    
  10 N10           -1.2127     3.4982     0.0268 N.3     
  11 C11            0.0445    -4.2848    -0.0215 C.3     
  12 N12            2.4440    -2.7629    -0.0366 N.pl3   
  13 H13            2.1481    -0.1382    -0.0195 H       
  14 H14           -2.1024    -2.6532     0.0066 H       
  15 H15           -2.1390    -0.1952     0.0317 H       
  16 H16           -2.0276     1.6360     0.0206 H       
  17 H17           -0.6953     3.8711    -0.7550 H       
  18 H18           -2.1595     3.8469     0.0332 H       
  19 H19            0.0577    -4.6537     1.0041 H       
  20 H20           -0.8469    -4.6539    -0.5289 H       
  21 H21            0.9329    -4.6369    -0.5458 H       
  22 H22            3.2802    -2.2714    -0.0423 H       
  23 H23            2.4514    -3.7328    -0.0419 H       
@<TRIPOS>BOND
   1    1    2 1
   2    1    8 2
   3    1    9 am
   4    2    3 ar
   5    2    7 ar
   6    3    4 ar
   7    3   13 1
   8    4    5 ar
   9    4   12 1
  10    5    6 ar
  11    5   11 1
  12    6    7 ar
  13    6   14 1
  14    7   15 1
  15    9   10 1
  16    9   16 1
  17   10   17 1
  18   10   18 1
  19   11   19 1
  20   11   20 1
  21   11   21 1
  22   12   22 1
  23   12   23 1

#	End of record

