#	Name: ASD01813206
#	Creating user name:	WinNT
#	Creation time:	15. 06. 2019 19:30

#	Modifying user name:	WinNT
#	Modification time:	15. 06. 2019 19:30

#	Program:	/corina/corina34_cracker 3.40 0067  02.08.2006

@<TRIPOS>MOLECULE
ASD01813206
  54   57    0    0    0
SMALL
NO_CHARGES


@<TRIPOS>ATOM
   1 C1             0.6950     1.9142     0.8735 C.2     
   2 C2             0.4003    -3.0659     2.0998 C.2     
   3 C3             1.1459    -1.9619     2.1048 C.2     
   4 C4             1.7827    -1.5006     0.8651 C.2     
   5 N5             1.5730    -0.2196     0.4329 N.am    
   6 C6             0.7576     0.6311     1.1750 C.2     
   7 C7             2.5941    -2.3660     0.1484 C.2     
   8 C8             3.1985    -1.9355    -1.0238 C.2     
   9 C9             2.9767    -0.6269    -1.4639 C.2     
  10 C10            2.1449     0.2296    -0.7001 C.2     
  11 O11            1.9431     1.3725    -1.0721 O.2     
  12 C12            3.6031    -0.1439    -2.6997 C.2     
  13 O13            3.3842     1.1196    -3.1173 O.3     
  14 O14            4.3195    -0.8828    -3.3473 O.2     
  15 C15            2.8200    -3.7718     0.6419 C.3     
  16 N16            3.1434    -4.6439    -0.4951 N.3     
  17 C17            3.7029    -5.9216    -0.0359 C.3     
  18 C18            4.1614    -6.7426    -1.2433 C.3     
  19 C19            2.9672    -6.9902    -2.1692 C.3     
  20 C20            2.3733    -5.6445    -2.5942 C.3     
  21 C21            1.9666    -4.8553    -1.3477 C.3     
  22 C22            3.4246    -7.7469    -3.3896 C.2     
  23 N23            3.9553    -7.1781    -4.5056 N.pl3   
  24 C24            4.2449    -8.1990    -5.3886 C.ar    
  25 C25            3.8626    -9.3883    -4.7454 C.ar    
  26 N26            3.3745    -9.0397    -3.5272 N.2     
  27 C27            4.7904    -8.2483    -6.6644 C.ar    
  28 C28            4.9529    -9.4655    -7.2909 C.ar    
  29 C29            4.5747   -10.6397    -6.6553 C.ar    
  30 C30            4.0364   -10.6105    -5.4002 C.ar    
  31 H31            1.3671     2.3292     0.1370 H       
  32 H32           -0.0312     2.5485     1.3601 H       
  33 H33           -0.1498    -3.3500     2.9847 H       
  34 H34            0.3461    -3.6768     1.2109 H       
  35 H35            1.2818    -1.4062     3.0208 H       
  36 H36            0.1764     0.2407     1.9974 H       
  37 H37            3.8327    -2.6024    -1.5889 H       
  38 H38            3.8184     1.3923    -3.9372 H       
  39 H39            3.6468    -3.7792     1.3522 H       
  40 H40            1.9165    -4.1343     1.1323 H       
  41 H41            4.5539    -5.7313     0.6181 H       
  42 H42            2.9408    -6.4758     0.5119 H       
  43 H43            4.9335    -6.1949    -1.7838 H       
  44 H44            4.5623    -7.6974    -0.9031 H       
  45 H45            2.2113    -7.5715    -1.6411 H       
  46 H46            3.1172    -5.0795    -3.1559 H       
  47 H47            1.4966    -5.8147    -3.2192 H       
  48 H48            1.2126    -5.4146    -0.7937 H       
  49 H49            1.5565    -3.8906    -1.6463 H       
  50 H50            4.1027    -6.2309    -4.6536 H       
  51 H51            5.0857    -7.3374    -7.1637 H       
  52 H52            5.3770    -9.5054    -8.2833 H       
  53 H53            4.7073   -11.5863    -7.1581 H       
  54 H54            3.7457   -11.5304    -4.9147 H       
@<TRIPOS>BOND
   1    1    6 2
   2    1   31 1
   3    1   32 1
   4    2    3 2
   5    2   33 1
   6    2   34 1
   7    3    4 1
   8    3   35 1
   9    4    5 1
  10    4    7 2
  11    5    6 1
  12    5   10 am
  13    6   36 1
  14    7    8 1
  15    7   15 1
  16    8    9 2
  17    8   37 1
  18    9   10 1
  19    9   12 1
  20   10   11 2
  21   12   13 1
  22   12   14 2
  23   13   38 1
  24   15   16 1
  25   15   39 1
  26   15   40 1
  27   16   17 1
  28   16   21 1
  29   17   18 1
  30   17   41 1
  31   17   42 1
  32   18   19 1
  33   18   43 1
  34   18   44 1
  35   19   20 1
  36   19   22 1
  37   19   45 1
  38   20   21 1
  39   20   46 1
  40   20   47 1
  41   21   48 1
  42   21   49 1
  43   22   23 1
  44   22   26 2
  45   23   24 1
  46   23   50 1
  47   24   25 ar
  48   24   27 ar
  49   25   26 1
  50   25   30 ar
  51   27   28 ar
  52   27   51 1
  53   28   29 ar
  54   28   52 1
  55   29   30 ar
  56   29   53 1
  57   30   54 1

#	End of record

