#	Name: ASD01150658
#	Creating user name:	WinNT
#	Creation time:	15. 06. 2019 19:04

#	Modifying user name:	WinNT
#	Modification time:	15. 06. 2019 19:04

#	Program:	/corina/corina34_cracker 3.40 0067  02.08.2006

@<TRIPOS>MOLECULE
ASD01150658
  45   48    0    0    0
SMALL
NO_CHARGES


@<TRIPOS>ATOM
   1 N1            -0.0158     1.3138     0.0093 N.ar    
   2 C2             0.0021    -0.0041     0.0020 C.ar    
   3 N3             1.1276    -0.6897    -0.0120 N.ar    
   4 C4             2.3020    -0.0779    -0.0199 C.ar    
   5 C5             2.3392     1.3142    -0.0132 C.ar    
   6 C6             1.1159     2.0098     0.0022 C.ar    
   7 C7             3.6309     2.0428    -0.0211 C.ar    
   8 C8             4.6291     1.7069     0.8917 C.ar    
   9 C9             5.8291     2.3883     0.8798 C.ar    
  10 C10            6.0422     3.4030    -0.0359 C.ar    
  11 C11            5.0549     3.7410    -0.9439 C.ar    
  12 C12            3.8533     3.0622    -0.9452 C.ar    
  13 C13           -1.3067    -0.7511     0.0105 C.3     
  14 N14            1.0922     3.3930     0.0094 N.pl3   
  15 C15            7.3548     4.1434    -0.0439 C.3     
  16 C16           -0.1888     4.1036     0.0250 C.3     
  17 C17           -0.7979     5.8396    -1.6045 C.3     
  18 C18           -1.9797     6.2835    -0.6893 C.3     
  19 C19           -1.4515     6.0932     0.7509 C.3     
  20 C20           -0.0003     5.5522     0.5703 C.3     
  21 C21           -0.7170     4.2939    -1.4153 C.3     
  22 C22            0.4278     6.3022    -0.7403 C.3     
  23 F23            8.2497     3.4968    -0.9031 F       
  24 F24            7.1480     5.4543    -0.4866 F       
  25 F25            7.8851     4.1665     1.2504 F       
  26 H26            3.2178    -0.6503    -0.0310 H       
  27 H27            4.4636     0.9151     1.6073 H       
  28 H28            6.6032     2.1291     1.5869 H       
  29 H29            5.2265     4.5345    -1.6562 H       
  30 H30            3.0851     3.3234    -1.6580 H       
  31 H31           -1.6321    -0.9257    -1.0151 H       
  32 H32           -1.1762    -1.7069     0.5180 H       
  33 H33           -2.0585    -0.1610     0.5347 H       
  34 H34            1.9238     3.8924     0.0041 H       
  35 H35           -0.9165     3.5604     0.6279 H       
  36 H36           -0.8350     6.1922    -2.6352 H       
  37 H37           -2.2266     7.3300    -0.8683 H       
  38 H38           -2.8513     5.6519    -0.8610 H       
  39 H39           -1.4387     7.0461     1.2800 H       
  40 H40           -2.0634     5.3680     1.2874 H       
  41 H41            0.6572     5.6545     1.4336 H       
  42 H42           -0.0236     3.8588    -2.1349 H       
  43 H43           -1.7053     3.8461    -1.5199 H       
  44 H44            1.3717     5.9272    -1.1360 H       
  45 H45            0.4475     7.3835    -0.6046 H       
@<TRIPOS>BOND
   1    1    2 ar
   2    1    6 ar
   3    2    3 ar
   4    2   13 1
   5    3    4 ar
   6    4    5 ar
   7    4   26 1
   8    5    6 ar
   9    5    7 1
  10    6   14 1
  11    7    8 ar
  12    7   12 ar
  13    8    9 ar
  14    8   27 1
  15    9   10 ar
  16    9   28 1
  17   10   11 ar
  18   10   15 1
  19   11   12 ar
  20   11   29 1
  21   12   30 1
  22   13   31 1
  23   13   32 1
  24   13   33 1
  25   14   16 1
  26   14   34 1
  27   15   23 1
  28   15   24 1
  29   15   25 1
  30   16   21 1
  31   16   20 1
  32   16   35 1
  33   17   18 1
  34   17   21 1
  35   17   22 1
  36   17   36 1
  37   18   19 1
  38   18   37 1
  39   18   38 1
  40   19   20 1
  41   19   39 1
  42   19   40 1
  43   20   22 1
  44   20   41 1
  45   21   42 1
  46   21   43 1
  47   22   44 1
  48   22   45 1

#	End of record

