#	Name: ASD01913476
#	Creating user name:	WinNT
#	Creation time:	15. 06. 2019 20:01

#	Modifying user name:	WinNT
#	Modification time:	15. 06. 2019 20:01

#	Program:	/corina/corina34_cracker 3.40 0067  02.08.2006

@<TRIPOS>MOLECULE
ASD01913476
  35   37    0    0    0
SMALL
NO_CHARGES


@<TRIPOS>ATOM
   1 C1            -0.3720    -0.6917    -2.1182 C.ar    
   2 C2            -0.8253    -0.0299    -0.9816 C.ar    
   3 C3            -0.8080     1.3612    -0.9778 C.ar    
   4 N4            -0.3641     2.0006    -2.0474 N.ar    
   5 C5             0.0573     1.3375    -3.1054 C.ar    
   6 N6             0.0565     0.0202    -3.1476 N.ar    
   7 C7            -1.2507    -2.0818     0.0365 C.ar    
   8 C8            -0.0545    -2.7714     0.1768 C.ar    
   9 N9            -0.0234    -4.0883     0.1243 N.ar    
  10 C10           -1.1149    -4.8030    -0.0613 C.ar    
  11 C11           -2.3514    -4.1870    -0.2104 C.ar    
  12 C12           -2.4257    -2.7984    -0.1610 C.ar    
  13 N13           -3.5055    -4.9522    -0.4080 N.am    
  14 C14           -4.6759    -4.5583     0.1320 C.2     
  15 O15           -1.2740    -0.7244     0.0970 O.3     
  16 C16           -5.8694    -5.4236     0.0214 C.ar    
  17 C17           -5.7858    -6.6497    -0.6424 C.ar    
  18 C18           -6.8995    -7.4596    -0.7463 C.ar    
  19 C19           -8.1022    -7.0643    -0.1958 C.ar    
  20 C20           -8.2001    -5.8401     0.4711 C.ar    
  21 C21           -7.0787    -5.0204     0.5841 C.ar    
  22 O22           -4.7501    -3.4914     0.7099 O.2     
  23 C23           -9.4483    -5.4313     1.0416 C.1     
  24 N24          -10.4385    -5.1071     1.4942 N.1     
  25 H25           -0.3657    -1.7709    -2.1580 H       
  26 H26           -1.1522     1.9110    -0.1143 H       
  27 H27            0.4132     1.8894    -3.9628 H       
  28 H28            0.8626    -2.2221     0.3305 H       
  29 H29           -1.0475    -5.8802    -0.0982 H       
  30 H30           -3.3720    -2.2901    -0.2732 H       
  31 H31           -3.4636    -5.7663    -0.9336 H       
  32 H32           -4.8481    -6.9649    -1.0757 H       
  33 H33           -6.8294    -8.4065    -1.2609 H       
  34 H34           -8.9694    -7.7024    -0.2810 H       
  35 H35           -7.1486    -4.0735     1.0987 H       
@<TRIPOS>BOND
   1    1    2 ar
   2    1    6 ar
   3    1   25 1
   4    2    3 ar
   5    2   15 1
   6    3    4 ar
   7    3   26 1
   8    4    5 ar
   9    5    6 ar
  10    5   27 1
  11    7    8 ar
  12    7   12 ar
  13    7   15 1
  14    8    9 ar
  15    8   28 1
  16    9   10 ar
  17   10   11 ar
  18   10   29 1
  19   11   12 ar
  20   11   13 1
  21   12   30 1
  22   13   14 am
  23   13   31 1
  24   14   16 1
  25   14   22 2
  26   16   17 ar
  27   16   21 ar
  28   17   18 ar
  29   17   32 1
  30   18   19 ar
  31   18   33 1
  32   19   20 ar
  33   19   34 1
  34   20   21 ar
  35   20   23 1
  36   21   35 1
  37   23   24 3

#	End of record

