#	Name: ASD03082303
#	Creating user name:	WinNT
#	Creation time:	15. 06. 2019 20:27

#	Modifying user name:	WinNT
#	Modification time:	15. 06. 2019 20:27

#	Program:	/corina/corina34_cracker 3.40 0067  02.08.2006

@<TRIPOS>MOLECULE
ASD03082303
  47   49    0    0    0
SMALL
NO_CHARGES


@<TRIPOS>ATOM
   1 N1            -0.0375     1.3461     0.3928 N.pl3   
   2 N2            -0.0403    -0.0221     0.0768 N.2     
   3 C3             1.1807    -0.4630     0.2724 C.2     
   4 N4             1.9463     0.5466     0.6914 N.2     
   5 C5             1.2256     1.6479     0.7697 C.2     
   6 N6             1.6092    -1.7768     0.0744 N.pl3   
   7 C7             2.9640    -2.1003     0.2168 C.ar    
   8 C8             3.9018    -1.0955     0.4117 C.ar    
   9 C9             5.2397    -1.4174     0.5526 C.ar    
  10 C10            5.6443    -2.7426     0.4989 C.ar    
  11 C11            4.7108    -3.7459     0.3042 C.ar    
  12 C12            3.3713    -3.4289     0.1690 C.ar    
  13 C13            1.7125     2.9780     1.1942 C.ar    
  14 C14           -1.1757     2.2657     0.3219 C.3     
  15 C15            0.8104     3.9627     1.6193 C.ar    
  16 C16            1.3118     5.1890     2.0060 C.ar    
  17 C17            2.6866     5.4064     1.9617 C.ar    
  18 N18            3.5132     4.4541     1.5546 N.ar    
  19 C19            3.0759     3.2685     1.1828 C.ar    
  20 C20           -1.9119     2.2561     1.6369 C.2     
  21 N21           -3.0013     3.0315     1.8049 N.am    
  22 C22           -3.7169     3.0223     3.0832 C.3     
  23 O23           -1.5239     1.5507     2.5439 O.2     
  24 C24           -3.4700     3.8837     0.7092 C.3     
  25 F25            6.9515    -3.0549     0.6363 F       
  26 F26            6.1528    -0.4399     0.7423 F       
  27 N27            3.1979     6.6374     2.3487 N.pl3   
  28 C28            2.2928     7.6974     2.8000 C.3     
  29 F29            2.4600    -4.4091    -0.0154 F       
  30 H30            0.9683    -2.4656    -0.1618 H       
  31 H31            3.5871    -0.0632     0.4529 H       
  32 H32            5.0281    -4.7774     0.2620 H       
  33 H33           -0.8163     3.2735     0.1141 H       
  34 H34           -1.8497     1.9490    -0.4741 H       
  35 H35           -0.2514     3.7668     1.6433 H       
  36 H36            0.6456     5.9711     2.3389 H       
  37 H37            3.7799     2.5171     0.8568 H       
  38 H38           -3.2978     3.7847     3.7398 H       
  39 H39           -4.7725     3.2321     2.9102 H       
  40 H40           -3.6130     2.0431     3.5507 H       
  41 H41           -4.1829     3.3303     0.0980 H       
  42 H42           -3.9542     4.7698     1.1197 H       
  43 H43           -2.6215     4.1850     0.0949 H       
  44 H44            4.1544     6.7959     2.3204 H       
  45 H45            2.8720     8.5834     3.0600 H       
  46 H46            1.5931     7.9423     2.0009 H       
  47 H47            1.7400     7.3550     3.6748 H       
@<TRIPOS>BOND
   1    1    2 1
   2    1    5 1
   3    1   14 1
   4    2    3 2
   5    3    4 1
   6    3    6 1
   7    4    5 2
   8    5   13 1
   9    6    7 1
  10    6   30 1
  11    7    8 ar
  12    7   12 ar
  13    8    9 ar
  14    8   31 1
  15    9   10 ar
  16    9   26 1
  17   10   11 ar
  18   10   25 1
  19   11   12 ar
  20   11   32 1
  21   12   29 1
  22   13   15 ar
  23   13   19 ar
  24   14   20 1
  25   14   33 1
  26   14   34 1
  27   15   16 ar
  28   15   35 1
  29   16   17 ar
  30   16   36 1
  31   17   18 ar
  32   17   27 1
  33   18   19 ar
  34   19   37 1
  35   20   21 am
  36   20   23 2
  37   21   22 1
  38   21   24 1
  39   22   38 1
  40   22   39 1
  41   22   40 1
  42   24   41 1
  43   24   42 1
  44   24   43 1
  45   27   28 1
  46   27   44 1
  47   28   45 1
  48   28   46 1
  49   28   47 1

#	End of record

