#	Name: ASD01148346
#	Creating user name:	WinNT
#	Creation time:	15. 06. 2019 19:02

#	Modifying user name:	WinNT
#	Modification time:	15. 06. 2019 19:02

#	Program:	/corina/corina34_cracker 3.40 0067  02.08.2006

@<TRIPOS>MOLECULE
ASD01148346
  55   58    0    0    0
SMALL
NO_CHARGES


@<TRIPOS>ATOM
   1 C1            -0.4094     1.8289    -0.0440 C.ar    
   2 C2            -0.4703     0.4496     0.0156 C.ar    
   3 C3             0.6956    -0.2914     0.0946 C.ar    
   4 C4             1.9216     0.3491     0.1138 C.ar    
   5 C5             1.9813     1.7289     0.0540 C.ar    
   6 C6             0.8163     2.4685    -0.0248 C.ar    
   7 C7             3.3168     2.4268     0.0749 C.3     
   8 O8             4.3319     1.6175    -0.5528 O.3     
   9 C9             3.3025     3.6772    -0.8364 C.3     
  10 C10            3.8444     3.1368    -2.1461 C.2     
  11 N11            4.3966     1.9932    -1.9144 N.2     
  12 C12            3.7552     3.8037    -3.4599 C.ar    
  13 C13            4.2993     3.1921    -4.5924 C.ar    
  14 C14            3.1217     5.0438    -3.5723 C.ar    
  15 C15            3.0386     5.6657    -4.7977 C.ar    
  16 C16            3.5876     5.0569    -5.9286 C.ar    
  17 C17            4.2160     3.8141    -5.8174 C.ar    
  18 C18            3.4978     5.7245    -7.2441 C.2     
  19 O19            4.0702     5.2510    -8.2063 O.2     
  20 N20            2.7814     6.8583    -7.3770 N.am    
  21 C21            4.8083     3.1575    -7.0377 C.3     
  22 C22            3.7168     2.7950     1.5051 C.3     
  23 F23            3.7885     1.6343     2.2828 F       
  24 F24            4.9655     3.4256     1.4923 F       
  25 F25            2.7621     3.6617     2.0478 F       
  26 Cl26           0.6199    -2.0241     0.1701 Cl      
  27 N27            2.6963     7.4911    -8.6240 N.pl3   
  28 C28            1.8453     6.9275    -9.6749 C.3     
  29 C29            3.4229     8.6593    -8.8654 C.ar    
  30 C30            3.3397     9.2881   -10.1013 C.ar    
  31 C31            4.0590    10.4433   -10.3364 C.ar    
  32 C32            4.8615    10.9742    -9.3431 C.ar    
  33 C33            4.9469    10.3506    -8.1118 C.ar    
  34 C34            4.2258     9.1983    -7.8681 C.ar    
  35 H35           -1.3191     2.4072    -0.1101 H       
  36 H36           -1.4277    -0.0499     0.0010 H       
  37 H37            2.8319    -0.2287     0.1757 H       
  38 H38            0.8634     3.5465    -0.0715 H       
  39 H39            2.2869     4.0521    -0.9632 H       
  40 H40            3.9558     4.4536    -0.4383 H       
  41 H41            4.7854     2.2315    -4.5065 H       
  42 H42            2.6969     5.5144    -2.6979 H       
  43 H43            2.5486     6.6242    -4.8847 H       
  44 H44            2.3246     7.2362    -6.6092 H       
  45 H45            5.8049     3.5599    -7.2192 H       
  46 H46            4.8749     2.0817    -6.8751 H       
  47 H47            4.1734     3.3558    -7.9012 H       
  48 H48            0.8434     7.3496    -9.5965 H       
  49 H49            2.2657     7.1686   -10.6512 H       
  50 H50            1.7936     5.8449    -9.5589 H       
  51 H51            2.7134     8.8737   -10.8775 H       
  52 H52            3.9951    10.9324   -11.2971 H       
  53 H53            5.4230    11.8777    -9.5296 H       
  54 H54            5.5748    10.7677    -7.3384 H       
  55 H55            4.2930     8.7117    -6.9063 H       
@<TRIPOS>BOND
   1    1    2 ar
   2    1    6 ar
   3    1   35 1
   4    2    3 ar
   5    2   36 1
   6    3    4 ar
   7    3   26 1
   8    4    5 ar
   9    4   37 1
  10    5    6 ar
  11    5    7 1
  12    6   38 1
  13    7    8 1
  14    7    9 1
  15    7   22 1
  16    8   11 1
  17    9   10 1
  18    9   39 1
  19    9   40 1
  20   10   11 2
  21   10   12 1
  22   12   13 ar
  23   12   14 ar
  24   13   17 ar
  25   13   41 1
  26   14   15 ar
  27   14   42 1
  28   15   16 ar
  29   15   43 1
  30   16   17 ar
  31   16   18 1
  32   17   21 1
  33   18   19 2
  34   18   20 am
  35   20   27 1
  36   20   44 1
  37   21   45 1
  38   21   46 1
  39   21   47 1
  40   22   23 1
  41   22   24 1
  42   22   25 1
  43   27   28 1
  44   27   29 1
  45   28   48 1
  46   28   49 1
  47   28   50 1
  48   29   30 ar
  49   29   34 ar
  50   30   31 ar
  51   30   51 1
  52   31   32 ar
  53   31   52 1
  54   32   33 ar
  55   32   53 1
  56   33   34 ar
  57   33   54 1
  58   34   55 1

#	End of record

