#	Name: ASD01120274
#	Creating user name:	WinNT
#	Creation time:	15. 06. 2019 18:59

#	Modifying user name:	WinNT
#	Modification time:	15. 06. 2019 18:59

#	Program:	/corina/corina34_cracker 3.40 0067  02.08.2006

@<TRIPOS>MOLECULE
ASD01120274
  33   34    0    0    0
SMALL
NO_CHARGES


@<TRIPOS>ATOM
   1 C1            -0.0187     1.5258     0.0104 C.3     
   2 C2             0.0021    -0.0041     0.0020 C.3     
   3 C3             0.7421    -0.5109     1.2415 C.3     
   4 C4             0.8700    -2.0108     1.1719 C.2     
   5 C5             1.8951    -2.7028     0.6074 C.2     
   6 N6             1.6546    -4.0570     0.7407 N.pl3   
   7 C7             0.4604    -4.2319     1.3988 C.ar    
   8 C8            -0.0527    -2.9522     1.6879 C.ar    
   9 C9            -1.2744    -2.8313     2.3633 C.ar    
  10 C10           -1.9576    -3.9518     2.7359 C.ar    
  11 C11           -1.4534    -5.2151     2.4523 C.ar    
  12 C12           -0.2534    -5.3603     1.7935 C.ar    
  13 N13            0.2720    -6.7121     1.4973 N.pl3   
  14 O14           -0.3577    -7.6980     1.8364 O.2     
  15 O15            1.3339    -6.8385     0.9143 O.2     
  16 C16            3.0706    -2.1061    -0.0406 C.2     
  17 O17            3.1823    -0.8972    -0.1028 O.2     
  18 O18            4.0258    -2.8994    -0.5665 O.3     
  19 C19           -1.4333    -0.5336     0.0129 C.3     
  20 H20            1.0039     1.9031     0.0027 H       
  21 H21           -0.5459     1.8868    -0.8726 H       
  22 H22           -0.5289     1.8773     0.9072 H       
  23 H23            0.5123    -0.3556    -0.8948 H       
  24 H24            1.7350    -0.0630     1.2804 H       
  25 H25            0.1838    -0.2350     2.1361 H       
  26 H26            2.2331    -4.7674     0.4220 H       
  27 H27           -1.6739    -1.8535     2.5888 H       
  28 H28           -2.8991    -3.8560     3.2564 H       
  29 H29           -2.0069    -6.0919     2.7546 H       
  30 H30            4.7806    -2.4609    -0.9827 H       
  31 H31           -1.9605    -0.1726    -0.8702 H       
  32 H32           -1.4185    -1.6235     0.0069 H       
  33 H33           -1.9435    -0.1821     0.9097 H       
@<TRIPOS>BOND
   1    1    2 1
   2    1   20 1
   3    1   21 1
   4    1   22 1
   5    2    3 1
   6    2   19 1
   7    2   23 1
   8    3    4 1
   9    3   24 1
  10    3   25 1
  11    4    5 2
  12    4    8 1
  13    5    6 1
  14    5   16 1
  15    6    7 1
  16    6   26 1
  17    7    8 ar
  18    7   12 ar
  19    8    9 ar
  20    9   10 ar
  21    9   27 1
  22   10   11 ar
  23   10   28 1
  24   11   12 ar
  25   11   29 1
  26   12   13 1
  27   13   14 2
  28   13   15 2
  29   16   17 2
  30   16   18 1
  31   18   30 1
  32   19   31 1
  33   19   32 1
  34   19   33 1

#	End of record

