#	Name: ASD00111087
#	Creating user name:	WinNT
#	Creation time:	15. 06. 2019 18:30

#	Modifying user name:	WinNT
#	Modification time:	15. 06. 2019 18:30

#	Program:	/corina/corina34_cracker 3.40 0067  02.08.2006

@<TRIPOS>MOLECULE
ASD00111087
  40   42    0    0    0
SMALL
NO_CHARGES


@<TRIPOS>ATOM
   1 N1            -0.7451     1.0516     0.0253 N.am    
   2 C2            -0.3351    -0.3458     0.1236 C.3     
   3 C3             0.6302    -0.5204     1.3012 C.3     
   4 C4             2.0126    -0.0921     0.8616 C.ar    
   5 C5             2.2886     1.2349     0.6397 C.ar    
   6 C6             1.2126     2.2803     0.8329 C.3     
   7 C7             0.1804     2.1348    -0.2922 C.3     
   8 C8             3.5528     1.6271     0.2387 C.ar    
   9 C9             4.5447     0.6733     0.0604 C.ar    
  10 C10            4.2637    -0.6672     0.2847 C.ar    
  11 C11            2.9970    -1.0493     0.6861 C.ar    
  12 O12            5.7894     1.0512    -0.3337 O.3     
  13 C13            6.0065     2.4475    -0.5464 C.3     
  14 C14            0.1720     0.3491     2.4738 C.3     
  15 C15           -1.3343     0.5163     2.6831 C.3     
  16 C16           -0.5201    -0.3516     3.6447 C.3     
  17 Br17           5.6126    -1.9701     0.0420 Br      
  18 C18           -2.0416     1.3558     0.2321 C.2     
  19 O19           -2.8364     0.4776     0.4930 O.2     
  20 C20           -2.5039     2.7872     0.1394 C.3     
  21 F21           -3.8786     2.8505     0.3913 F       
  22 F22           -1.8205     3.5601     1.0842 F       
  23 F23           -2.2418     3.2796    -1.1436 F       
  24 H24           -1.2141    -0.9713     0.2796 H       
  25 H25            0.1617    -0.6437    -0.7997 H       
  26 H26            0.6509    -1.5670     1.6051 H       
  27 H27            0.7266     2.1310     1.7970 H       
  28 H28            1.6577     3.2745     0.7950 H       
  29 H29            0.6927     1.9113    -1.2280 H       
  30 H30           -0.3748     3.0669    -0.3974 H       
  31 H31            3.7670     2.6712     0.0647 H       
  32 H32            2.7760    -2.0918     0.8614 H       
  33 H33            5.3318     2.8059    -1.3238 H       
  34 H34            5.8151     2.9901     0.3794 H       
  35 H35            7.0384     2.6116    -0.8569 H       
  36 H36            0.8099     1.2026     2.7035 H       
  37 H37           -1.6875     1.4797     3.0508 H       
  38 H38           -1.9990     0.0068     1.9854 H       
  39 H39           -0.6490    -1.4319     3.5796 H       
  40 H40           -0.3376     0.0409     4.6451 H       
@<TRIPOS>BOND
   1    1    2 1
   2    1    7 1
   3    1   18 am
   4    2    3 1
   5    2   24 1
   6    2   25 1
   7    3    4 1
   8    3   14 1
   9    3   26 1
  10    4    5 ar
  11    4   11 ar
  12    5    6 1
  13    5    8 ar
  14    6    7 1
  15    6   27 1
  16    6   28 1
  17    7   29 1
  18    7   30 1
  19    8    9 ar
  20    8   31 1
  21    9   10 ar
  22    9   12 1
  23   10   11 ar
  24   10   17 1
  25   11   32 1
  26   12   13 1
  27   13   33 1
  28   13   34 1
  29   13   35 1
  30   14   15 1
  31   14   16 1
  32   14   36 1
  33   15   16 1
  34   15   37 1
  35   15   38 1
  36   16   39 1
  37   16   40 1
  38   18   19 2
  39   18   20 1
  40   20   21 1
  41   20   22 1
  42   20   23 1

#	End of record

