#	Name: ASD01810947
#	Creating user name:	WinNT
#	Creation time:	15. 06. 2019 19:25

#	Modifying user name:	WinNT
#	Modification time:	15. 06. 2019 19:25

#	Program:	/corina/corina34_cracker 3.40 0067  02.08.2006

@<TRIPOS>MOLECULE
ASD01810947
  68   72    0    0    0
SMALL
NO_CHARGES


@<TRIPOS>ATOM
   1 C1            -8.1120     2.7406    -4.2121 C.1     
   2 C2            -7.0728     3.5026    -3.5874 C.ar    
   3 C3            -5.8522     2.9004    -3.2756 C.ar    
   4 C4            -4.8556     3.6403    -2.6738 C.ar    
   5 C5            -5.0634     4.9761    -2.3788 C.ar    
   6 C6            -6.2706     5.5790    -2.6847 C.ar    
   7 C7            -7.2735     4.8526    -3.2926 C.ar    
   8 N8            -8.9363     2.1361    -4.7076 N.1     
   9 N9            -2.8652     8.1365    -0.6182 N.am    
  10 C10           -2.4465     7.7416    -1.9700 C.3     
  11 C11           -3.5817     6.9492    -2.6260 C.3     
  12 C12           -3.9701     5.7778    -1.7209 C.3     
  13 C13           -4.4687     6.3131    -0.3767 C.3     
  14 C14           -3.3436     7.0983     0.3048 C.3     
  15 C15           -2.8063     9.4259    -0.2303 C.2     
  16 C16           -3.3264     9.8237     1.0954 C.ar    
  17 C17           -4.2994    10.8208     1.1953 C.ar    
  18 C18           -4.7858    11.1931     2.4325 C.ar    
  19 C19           -4.3146    10.5832     3.5786 C.ar    
  20 C20           -3.3427     9.5849     3.4928 C.ar    
  21 C21           -2.8512     9.2006     2.2474 C.ar    
  22 O22           -2.3257    10.2619    -0.9704 O.2     
  23 C23           -4.8188    11.4920    -0.0499 C.3     
  24 N24           -2.6104     8.3960     6.7662 N.2     
  25 N25           -3.2770     9.1274     5.9458 N.2     
  26 C26           -2.8389     8.9332     4.7219 C.2     
  27 N27           -1.8282     8.0137     4.8002 N.pl3   
  28 C28           -1.7157     7.6983     6.1192 C.2     
  29 C29           -0.7383     6.7228     6.7225 C.3     
  30 C30            0.0664     7.4205     7.8210 C.3     
  31 C31           -4.8507    10.9968     4.9249 C.3     
  32 C32           -5.8747     9.9661     5.4047 C.3     
  33 C33           -6.4076    10.2403     6.8209 C.3     
  34 C34           -7.7903     9.8172     6.2975 C.3     
  35 C35           -7.3023    10.2353     4.9004 C.3     
  36 H36           -5.6890     1.8577    -3.5046 H       
  37 H37           -3.9110     3.1758    -2.4321 H       
  38 H38           -6.4264     6.6219    -2.4513 H       
  39 H39           -8.2136     5.3256    -3.5352 H       
  40 H40           -2.2333     8.6321    -2.5613 H       
  41 H41           -1.5540     7.1188    -1.9088 H       
  42 H42           -4.4443     7.6000    -2.7690 H       
  43 H43           -3.2488     6.5682    -3.5915 H       
  44 H44           -3.1006     5.1410    -1.5580 H       
  45 H45           -5.3229     6.9699    -0.5409 H       
  46 H46           -4.7671     5.4793     0.2588 H       
  47 H47           -2.5242     6.4230     0.5515 H       
  48 H48           -3.7223     7.5643     1.2144 H       
  49 H49           -5.5378    11.9649     2.5044 H       
  50 H50           -2.1019     8.4262     2.1755 H       
  51 H51           -5.6192    10.8900    -0.4802 H       
  52 H52           -5.2033    12.4800     0.2033 H       
  53 H53           -4.0098    11.5915    -0.7735 H       
  54 H54           -1.3010     7.6598     4.0669 H       
  55 H55           -1.2825     5.8806     7.1500 H       
  56 H56           -0.0604     6.3622     5.9489 H       
  57 H57           -0.6115     7.7810     8.5947 H       
  58 H58            0.7733     6.7148     8.2574 H       
  59 H59            0.6106     8.2626     7.3935 H       
  60 H60           -4.0306    11.0544     5.6405 H       
  61 H61           -5.3292    11.9726     4.8414 H       
  62 H62           -5.5435     8.9387     5.2541 H       
  63 H63           -6.0027     9.5682     7.5775 H       
  64 H64           -6.3533    11.2892     7.1124 H       
  65 H65           -7.9841     8.7486     6.3906 H       
  66 H66           -8.6073    10.4312     6.6765 H       
  67 H67           -7.4927    11.2829     4.6669 H       
  68 H68           -7.6198     9.5592     4.1066 H       
@<TRIPOS>BOND
   1    1    2 1
   2    1    8 3
   3    2    3 ar
   4    2    7 ar
   5    3    4 ar
   6    3   36 1
   7    4    5 ar
   8    4   37 1
   9    5    6 ar
  10    5   12 1
  11    6    7 ar
  12    6   38 1
  13    7   39 1
  14    9   10 1
  15    9   14 1
  16    9   15 am
  17   10   11 1
  18   10   40 1
  19   10   41 1
  20   11   12 1
  21   11   42 1
  22   11   43 1
  23   12   13 1
  24   12   44 1
  25   13   14 1
  26   13   45 1
  27   13   46 1
  28   14   47 1
  29   14   48 1
  30   15   16 1
  31   15   22 2
  32   16   17 ar
  33   16   21 ar
  34   17   18 ar
  35   17   23 1
  36   18   19 ar
  37   18   49 1
  38   19   20 ar
  39   19   31 1
  40   20   21 ar
  41   20   26 1
  42   21   50 1
  43   23   51 1
  44   23   52 1
  45   23   53 1
  46   24   25 1
  47   24   28 2
  48   25   26 2
  49   26   27 1
  50   27   28 1
  51   27   54 1
  52   28   29 1
  53   29   30 1
  54   29   55 1
  55   29   56 1
  56   30   57 1
  57   30   58 1
  58   30   59 1
  59   31   32 1
  60   31   60 1
  61   31   61 1
  62   32   33 1
  63   32   35 1
  64   32   62 1
  65   33   34 1
  66   33   63 1
  67   33   64 1
  68   34   35 1
  69   34   65 1
  70   34   66 1
  71   35   67 1
  72   35   68 1

#	End of record

