#	Name: ASD01840056
#	Creating user name:	WinNT
#	Creation time:	15. 06. 2019 19:37

#	Modifying user name:	WinNT
#	Modification time:	15. 06. 2019 19:37

#	Program:	/corina/corina34_cracker 3.40 0067  02.08.2006

@<TRIPOS>MOLECULE
ASD01840056
  58   62    0    0    0
SMALL
NO_CHARGES


@<TRIPOS>ATOM
   1 C1             0.0058     1.3482     0.0168 C.ar    
   2 N2             0.2933     0.5063     0.9985 N.ar    
   3 C3             1.4324    -0.1620     1.0148 C.ar    
   4 N4             2.3338    -0.0308     0.0692 N.ar    
   5 C5             0.9453     1.5276    -1.0307 C.ar    
   6 C6             0.8905     2.3707    -2.2100 C.2     
   7 C7             2.1344     0.7963    -0.9647 C.ar    
   8 S8             3.1379     1.1753    -2.3568 S.3     
   9 C9             1.9500     2.2977    -2.9921 C.2     
  10 C10           -0.2860     3.2606    -2.5179 C.3     
  11 C11            2.1182     3.0796    -4.2694 C.3     
  12 N12           -1.1938     2.0369     0.0104 N.3     
  13 C13           -2.3286     1.1160    -0.1329 C.3     
  14 C14           -3.6230     1.9187    -0.2821 C.3     
  15 C15           -3.8134     2.8048     0.9520 C.3     
  16 C16           -2.5959     3.7205     1.1060 C.3     
  17 C17           -1.3313     2.8656     1.2150 C.3     
  18 C18           -5.0552     3.6420     0.7841 C.2     
  19 O19           -5.7232     3.5409    -0.2232 O.2     
  20 N20           -5.4235     4.5032     1.7533 N.am    
  21 C21           -6.5234     5.3485     1.5583 C.ar    
  22 C22           -8.7082     5.7341     0.6476 C.ar    
  23 C23           -7.6240     4.9012     0.8393 C.ar    
  24 C24           -6.5155     6.6319     2.0887 C.ar    
  25 C25           -7.5997     7.4647     1.8969 C.ar    
  26 C26           -8.6980     7.0192     1.1736 C.ar    
  27 N27           -9.7982     7.8647     0.9785 N.am    
  28 C28           -9.8691     9.2773     1.3810 C.3     
  29 C29          -11.2770     9.7179     0.9354 C.3     
  30 N30          -11.8498     8.5068     0.3291 N.am    
  31 C31          -10.9502     7.5163     0.3906 C.2     
  32 O32          -11.1617     6.4007    -0.0443 O.2     
  33 H33            1.6291    -0.8386     1.8333 H       
  34 H34           -0.1715     4.2089    -1.9928 H       
  35 H35           -0.3325     3.4431    -3.5915 H       
  36 H36           -1.2051     2.7735    -2.1920 H       
  37 H37            2.5998     4.0328    -4.0512 H       
  38 H38            2.7359     2.5112    -4.9647 H       
  39 H39            1.1405     3.2604    -4.7162 H       
  40 H40           -2.1827     0.4946    -1.0165 H       
  41 H41           -2.3948     0.4810     0.7506 H       
  42 H42           -3.5629     2.5437    -1.1731 H       
  43 H43           -4.4669     1.2348    -0.3728 H       
  44 H44           -3.9125     2.1784     1.8385 H       
  45 H45           -2.5197     4.3739     0.2368 H       
  46 H46           -2.7060     4.3239     2.0070 H       
  47 H47           -1.4022     2.2224     2.0921 H       
  48 H48           -0.4610     3.5149     1.3103 H       
  49 H49           -4.9269     4.5376     2.5858 H       
  50 H50           -9.5640     5.3863     0.0881 H       
  51 H51           -7.6318     3.9018     0.4300 H       
  52 H52           -5.6614     6.9782     2.6516 H       
  53 H53           -7.5937     8.4627     2.3098 H       
  54 H54           -9.7623     9.3731     2.4615 H       
  55 H55           -9.1051     9.8604     0.8669 H       
  56 H56          -11.8693    10.0325     1.7947 H       
  57 H57          -11.2120    10.5199     0.2000 H       
  58 H58          -12.7367     8.4374    -0.0576 H       
@<TRIPOS>BOND
   1    1    2 ar
   2    1    5 ar
   3    1   12 1
   4    2    3 ar
   5    3    4 ar
   6    3   33 1
   7    4    7 ar
   8    5    7 ar
   9    5    6 1
  10    6    9 2
  11    6   10 1
  12    7    8 1
  13    8    9 1
  14    9   11 1
  15   10   34 1
  16   10   35 1
  17   10   36 1
  18   11   37 1
  19   11   38 1
  20   11   39 1
  21   12   13 1
  22   12   17 1
  23   13   14 1
  24   13   40 1
  25   13   41 1
  26   14   15 1
  27   14   42 1
  28   14   43 1
  29   15   16 1
  30   15   18 1
  31   15   44 1
  32   16   17 1
  33   16   45 1
  34   16   46 1
  35   17   47 1
  36   17   48 1
  37   18   19 2
  38   18   20 am
  39   20   21 1
  40   20   49 1
  41   21   24 ar
  42   21   23 ar
  43   22   23 ar
  44   22   26 ar
  45   22   50 1
  46   23   51 1
  47   24   25 ar
  48   24   52 1
  49   25   26 ar
  50   25   53 1
  51   26   27 1
  52   27   28 1
  53   27   31 am
  54   28   29 1
  55   28   54 1
  56   28   55 1
  57   29   30 1
  58   29   56 1
  59   29   57 1
  60   30   31 am
  61   30   58 1
  62   31   32 2

#	End of record

