#	Name: ASD00844514
#	Creating user name:	WinNT
#	Creation time:	15. 06. 2019 18:50

#	Modifying user name:	WinNT
#	Modification time:	15. 06. 2019 18:50

#	Program:	/corina/corina34_cracker 3.40 0067  02.08.2006

@<TRIPOS>MOLECULE
ASD00844514
  87   92    0    0    0
SMALL
NO_CHARGES


@<TRIPOS>ATOM
   1 C1            -0.0051     1.3862     0.0370 C.ar    
   2 C2             0.0093    -0.0007     0.0190 C.ar    
   3 C3             1.2194    -0.6794    -0.0011 C.ar    
   4 C4             2.4062     0.0272    -0.0032 C.ar    
   5 C5             2.3891     1.4098     0.0152 C.ar    
   6 C6             1.1849     2.0884     0.0348 C.ar    
   7 C7             1.2387    -2.1861    -0.0202 C.3     
   8 C8             0.4941    -2.7108    -1.2293 C.2     
   9 N9             2.6177    -2.6805    -0.0123 N.am    
  10 C10            3.4634    -2.3342    -1.0029 C.2     
  11 N11            4.7591    -2.7005    -0.9417 N.am    
  12 O12            3.0576    -1.6914    -1.9518 O.2     
  13 C13            5.2904    -3.3763     0.2498 C.3     
  14 C14            6.5168    -2.6053     0.7481 C.3     
  15 C15            7.5240    -2.4627    -0.3953 C.3     
  16 C16            6.8890    -1.6716    -1.5411 C.3     
  17 C17            5.6655    -2.4369    -2.0676 C.3     
  18 N18            8.7158    -1.7528     0.0880 N.3     
  19 C19            9.7549    -1.7009    -0.9498 C.3     
  20 C20           10.9449    -0.8868    -0.4362 C.3     
  21 N21           11.4628    -1.5034     0.7931 N.3     
  22 C22           10.4237    -1.5553     1.8310 C.3     
  23 C23            9.2337    -2.3693     1.3174 C.3     
  24 C24           12.6546    -0.7934     1.2764 C.3     
  25 O25            0.7737    -2.5069    -2.3918 O.2     
  26 N26           -0.5343    -3.4452    -0.7729 N.am    
  27 C27            0.4677    -2.7405     1.1558 C.ar    
  28 C28           -0.5784    -3.4829     0.6224 C.ar    
  29 C29            0.6320    -2.6292     2.5182 C.ar    
  30 C30           -1.3010    -4.0075     2.8551 C.ar    
  31 C31           -1.4657    -4.1186     1.4878 C.ar    
  32 F32           -2.1648    -4.6269     3.6890 F       
  33 C33           -0.9916    -5.8310    -2.0663 C.ar    
  34 C34           -1.3192    -6.8768    -1.2232 C.ar    
  35 C35           -0.1731    -6.0510    -3.1587 C.ar    
  36 C36            0.3195    -7.3168    -3.4104 C.ar    
  37 C37           -0.0077    -8.3678    -2.5660 C.ar    
  38 C38           -0.8288    -8.1444    -1.4703 C.ar    
  39 O39            0.4753    -9.6141    -2.8117 O.3     
  40 H40           -1.9588    -6.7024    -0.3706 H       
  41 C41            0.0971   -10.6478    -1.9004 C.3     
  42 C42           -0.2532    -3.2629     3.3753 C.ar    
  43 F43           -0.0958    -3.1562     4.7128 F       
  44 O44           -1.1597    -0.6936     0.0215 O.3     
  45 C45           -2.3669     0.0708     0.0431 C.3     
  46 C46           -3.5695    -0.8750     0.0428 C.3     
  47 F47           -3.5396    -1.6669    -1.1101 F       
  48 F48           -3.5173    -1.6963     1.1741 F       
  49 S49           -1.6242    -4.2168    -1.7522 S.o2    
  50 O50           -2.8042    -4.3915    -0.9799 O.2     
  51 O51           -1.6038    -3.5289    -2.9954 O.2     
  52 H52           -0.9457     1.9168     0.0481 H       
  53 H53            3.3483    -0.5006    -0.0188 H       
  54 H54            3.3182     1.9605     0.0143 H       
  55 H55            1.1742     3.1682     0.0491 H       
  56 H56            2.9222    -3.2571     0.7059 H       
  57 H57            4.5289    -3.3950     1.0294 H       
  58 H58            5.5790    -4.3957    -0.0066 H       
  59 H59            6.2110    -1.6162     1.0890 H       
  60 H60            6.9776    -3.1486     1.5731 H       
  61 H61            7.8107    -3.4519    -0.7522 H       
  62 H62            6.5796    -0.6912    -1.1786 H       
  63 H63            7.6145    -1.5502    -2.3454 H       
  64 H64            5.9872    -3.3785    -2.5128 H       
  65 H65            5.1512    -1.8336    -2.8157 H       
  66 H66           10.0822    -2.7130    -1.1877 H       
  67 H67            9.3511    -1.2290    -1.8455 H       
  68 H68           11.7289    -0.8714    -1.1934 H       
  69 H69           10.6236     0.1329    -0.2241 H       
  70 H70           10.8276    -2.0271     2.7267 H       
  71 H71           10.0964    -0.5431     2.0688 H       
  72 H72            8.4498    -2.3848     2.0746 H       
  73 H73            9.5551    -3.3890     1.1053 H       
  74 H74           12.3984     0.2449     1.4873 H       
  75 H75           13.0172    -1.2703     2.1870 H       
  76 H76           13.4324    -0.8280     0.5136 H       
  77 H77            1.4502    -2.0489     2.9185 H       
  78 H78           -2.2840    -4.6998     1.0891 H       
  79 H79            0.0811    -5.2326    -3.8160 H       
  80 H80            0.9586    -7.4883    -4.2640 H       
  81 H81           -1.0853    -8.9610    -0.8117 H       
  82 H82            0.5494   -11.5895    -2.2111 H       
  83 H83            0.4414   -10.3925    -0.8982 H       
  84 H84           -0.9882   -10.7497    -1.8967 H       
  85 H85           -2.3902     0.6878     0.9414 H       
  86 H86           -2.4076     0.7107    -0.8383 H       
  87 H87           -4.4903    -0.2920     0.0593 H       
@<TRIPOS>BOND
   1    1    2 ar
   2    1    6 ar
   3    1   52 1
   4    2    3 ar
   5    2   44 1
   6    3    4 ar
   7    3    7 1
   8    4    5 ar
   9    4   53 1
  10    5    6 ar
  11    5   54 1
  12    6   55 1
  13    7    8 1
  14    7    9 1
  15    7   27 1
  16    8   25 2
  17    8   26 am
  18    9   10 am
  19    9   56 1
  20   10   11 am
  21   10   12 2
  22   11   13 1
  23   11   17 1
  24   13   14 1
  25   13   57 1
  26   13   58 1
  27   14   15 1
  28   14   59 1
  29   14   60 1
  30   15   16 1
  31   15   18 1
  32   15   61 1
  33   16   17 1
  34   16   62 1
  35   16   63 1
  36   17   64 1
  37   17   65 1
  38   18   19 1
  39   18   23 1
  40   19   20 1
  41   19   66 1
  42   19   67 1
  43   20   21 1
  44   20   68 1
  45   20   69 1
  46   21   22 1
  47   21   24 1
  48   22   23 1
  49   22   70 1
  50   22   71 1
  51   23   72 1
  52   23   73 1
  53   24   74 1
  54   24   75 1
  55   24   76 1
  56   26   49 am
  57   26   28 1
  58   27   28 ar
  59   27   29 ar
  60   28   31 ar
  61   29   42 ar
  62   29   77 1
  63   30   31 ar
  64   30   32 1
  65   30   42 ar
  66   31   78 1
  67   33   34 ar
  68   33   35 ar
  69   33   49 1
  70   34   40 1
  71   34   38 ar
  72   35   36 ar
  73   35   79 1
  74   36   37 ar
  75   36   80 1
  76   37   38 ar
  77   37   39 1
  78   38   81 1
  79   39   41 1
  80   41   82 1
  81   41   83 1
  82   41   84 1
  83   42   43 1
  84   44   45 1
  85   45   46 1
  86   45   85 1
  87   45   86 1
  88   46   47 1
  89   46   48 1
  90   46   87 1
  91   49   50 2
  92   49   51 2

#	End of record

