#	Name: ASD01230816
#	Creating user name:	WinNT
#	Creation time:	15. 06. 2019 19:15

#	Modifying user name:	WinNT
#	Modification time:	15. 06. 2019 19:15

#	Program:	/corina/corina34_cracker 3.40 0067  02.08.2006

@<TRIPOS>MOLECULE
ASD01230816
  25   26    0    0    0
SMALL
NO_CHARGES


@<TRIPOS>ATOM
   1 S1            -0.0204     1.6510     0.0111 S.o2    
   2 N2             0.0021    -0.0041     0.0020 N.am    
   3 C3             1.0174    -0.6814    -0.4611 C.2     
   4 N4             2.1615    -0.1418    -0.9831 N.pl3   
   5 C5             2.3958     1.2919    -1.1489 C.3     
   6 C6             1.7494     2.0778    -0.0035 C.3     
   7 C7             0.9112    -2.1591    -0.4105 C.2     
   8 N8             1.9176    -2.8961    -0.8356 N.2     
   9 C9             3.0179    -2.3335    -1.3076 C.2     
  10 C10            3.1571    -0.9872    -1.3860 C.2     
  11 C11           -0.3085    -2.7981     0.1109 C.2     
  12 O12           -1.2335    -2.1136     0.5021 O.2     
  13 O13           -0.3992    -4.1425     0.1545 O.3     
  14 O14           -0.6349     2.0067    -1.2197 O.2     
  15 O15           -0.6113     1.9934     1.2572 O.2     
  16 C16           -1.6308    -4.7034     0.6807 C.3     
  17 H17            3.4690     1.4826    -1.1551 H       
  18 H18            1.9675     1.6192    -2.0962 H       
  19 H19            1.8718     3.1477    -0.1721 H       
  20 H20            2.2070     1.7959     0.9448 H       
  21 H21            3.8287    -2.9648    -1.6400 H       
  22 H22            4.0754    -0.5734    -1.7757 H       
  23 H23           -1.7737    -4.3668     1.7075 H       
  24 H24           -2.4707    -4.3728     0.0697 H       
  25 H25           -1.5725    -5.7916     0.6598 H       
@<TRIPOS>BOND
   1    1    2 am
   2    1    6 1
   3    1   14 2
   4    1   15 2
   5    2    3 2
   6    3    4 1
   7    3    7 1
   8    4    5 1
   9    4   10 1
  10    5    6 1
  11    5   17 1
  12    5   18 1
  13    6   19 1
  14    6   20 1
  15    7    8 2
  16    7   11 1
  17    8    9 1
  18    9   10 2
  19    9   21 1
  20   10   22 1
  21   11   12 2
  22   11   13 1
  23   13   16 1
  24   16   23 1
  25   16   24 1
  26   16   25 1

#	End of record

