#	Name: ASD07301006
#	Creating user name:	WinNT
#	Creation time:	15. 06. 2019 21:10

#	Modifying user name:	WinNT
#	Modification time:	15. 06. 2019 21:10

#	Program:	/corina/corina34_cracker 3.40 0067  02.08.2006

@<TRIPOS>MOLECULE
ASD07301006
  39   41    0    0    0
SMALL
NO_CHARGES


@<TRIPOS>ATOM
   1 N1            -0.0153     1.2803     0.0091 N.pl3   
   2 N2             0.0021    -0.0041     0.0020 N.2     
   3 C3             1.2316    -0.4545    -0.0121 C.2     
   4 C4             2.0915     0.6460    -0.0144 C.2     
   5 C5             1.2668     1.7563    -0.0006 C.2     
   6 O6             3.0521     3.7766    -0.0076 O.3     
   7 B7             1.7131     3.2615     0.0024 Du      
   8 O8             0.8713     4.4232     0.0154 O.3     
   9 C9             1.5199     5.3543    -0.8762 C.3     
  10 C10            2.9985     4.9159    -0.8918 C.3     
  11 C11            3.8935     6.0405    -0.3671 C.3     
  12 C12            3.4203     4.5133    -2.3063 C.3     
  13 C13            0.9196     5.2547    -2.2800 C.3     
  14 C14            1.3928     6.7819    -0.3408 C.3     
  15 C15           -1.1702     2.0719     0.0191 C.ar    
  16 C16           -2.3044     1.6568    -0.6666 C.ar    
  17 C17           -3.4419     2.4399    -0.6548 C.ar    
  18 C18           -3.4524     3.6362     0.0387 C.ar    
  19 C19           -2.3247     4.0524     0.7224 C.ar    
  20 C20           -1.1859     3.2712     0.7193 C.ar    
  21 H21            1.5281    -1.4930    -0.0202 H       
  22 H22            3.1713     0.6329    -0.0248 H       
  23 H23            4.9267     5.6952    -0.3299 H       
  24 H24            3.8220     6.9017    -1.0314 H       
  25 H25            3.5695     6.3257     0.6338 H       
  26 H26            2.7632     3.7235    -2.6704 H       
  27 H27            3.3498     5.3777    -2.9664 H       
  28 H28            4.4485     4.1517    -2.2898 H       
  29 H29           -0.1390     5.5118    -2.2415 H       
  30 H30            1.4371     5.9448    -2.9463 H       
  31 H31            1.0329     4.2365    -2.6522 H       
  32 H32            1.8392     6.8387     0.6520 H       
  33 H33            1.9093     7.4688    -1.0113 H       
  34 H34            0.3392     7.0553    -0.2817 H       
  35 H35           -2.2968     0.7227    -1.2087 H       
  36 H36           -4.3241     2.1178    -1.1881 H       
  37 H37           -4.3431     4.2470     0.0461 H       
  38 H38           -2.3361     4.9873     1.2631 H       
  39 H39           -0.3069     3.5946     1.2572 H       
@<TRIPOS>BOND
   1    1    2 1
   2    1    5 1
   3    1   15 1
   4    2    3 2
   5    3    4 1
   6    3   21 1
   7    4    5 2
   8    4   22 1
   9    5    7 1
  10    6    7 1
  11    6   10 1
  12    7    8 1
  13    8    9 1
  14    9   10 1
  15    9   13 1
  16    9   14 1
  17   10   11 1
  18   10   12 1
  19   11   23 1
  20   11   24 1
  21   11   25 1
  22   12   26 1
  23   12   27 1
  24   12   28 1
  25   13   29 1
  26   13   30 1
  27   13   31 1
  28   14   32 1
  29   14   33 1
  30   14   34 1
  31   15   16 ar
  32   15   20 ar
  33   16   17 ar
  34   16   35 1
  35   17   18 ar
  36   17   36 1
  37   18   19 ar
  38   18   37 1
  39   19   20 ar
  40   19   38 1
  41   20   39 1

#	End of record

