#	Name: ASD04910148
#	Creating user name:	WinNT
#	Creation time:	15. 06. 2019 20:55

#	Modifying user name:	WinNT
#	Modification time:	15. 06. 2019 20:55

#	Program:	/corina/corina34_cracker 3.40 0067  02.08.2006

@<TRIPOS>MOLECULE
ASD04910148
  38   39    0    0    0
SMALL
NO_CHARGES


@<TRIPOS>ATOM
   1 C1            -0.0180     1.4730     0.0101 C.2     
   2 C2             0.0021    -0.0041     0.0020 C.ar    
   3 C3             1.2188    -0.6888    -0.0133 C.ar    
   4 C4             1.2303    -2.0682    -0.0203 C.ar    
   5 C5             0.0396    -2.7731    -0.0127 C.ar    
   6 C6            -1.1697    -2.1009     0.0020 C.ar    
   7 C7            -1.1956    -0.7217     0.0154 C.ar    
   8 O8             1.0256     2.0946     0.0035 O.2     
   9 O9            -1.1936     2.1307     0.0193 O.3     
  10 C10            0.0601    -4.2800    -0.0210 C.3     
  11 O11           -1.0296    -4.7754     0.7596 O.3     
  12 C12           -0.0724    -4.7839    -1.4595 C.3     
  13 C13           -0.0530    -6.3224    -1.4829 C.3     
  14 C14           -1.4008    -6.7710    -2.0848 C.3     
  15 C15           -1.8670    -5.5538    -2.9215 C.3     
  16 C16           -1.4313    -4.3514    -2.0479 C.3     
  17 C17           -1.1373     3.5816     0.0269 C.3     
  18 C18           -2.5589     4.1471     0.0367 C.3     
  19 H19            2.1488    -0.1398    -0.0199 H       
  20 H20            2.1707    -2.5992    -0.0321 H       
  21 H21           -2.0953    -2.6572     0.0071 H       
  22 H22           -2.1401    -0.1983     0.0318 H       
  23 H23            1.0004    -4.6329     0.4025 H       
  24 H24           -1.8996    -4.5001     0.4398 H       
  25 H25            0.7413    -4.3909    -2.0690 H       
  26 H26            0.7696    -6.6760    -2.1045 H       
  27 H27            0.0508    -6.7100    -0.4695 H       
  28 H28           -1.2617    -7.6428    -2.7242 H       
  29 H29           -2.1186    -6.9876    -1.2937 H       
  30 H30           -1.3621    -5.5328    -3.8873 H       
  31 H31           -2.9493    -5.5655    -3.0505 H       
  32 H32           -2.1541    -4.1772    -1.2508 H       
  33 H33           -1.3145    -3.4573    -2.6604 H       
  34 H34           -0.6055     3.9199     0.9162 H       
  35 H35           -0.6140     3.9295    -0.8637 H       
  36 H36           -3.0907     3.8088    -0.8526 H       
  37 H37           -3.0822     3.7991     0.9273 H       
  38 H38           -2.5166     5.2362     0.0424 H       
@<TRIPOS>BOND
   1    1    2 1
   2    1    8 2
   3    1    9 1
   4    2    3 ar
   5    2    7 ar
   6    3    4 ar
   7    3   19 1
   8    4    5 ar
   9    4   20 1
  10    5    6 ar
  11    5   10 1
  12    6    7 ar
  13    6   21 1
  14    7   22 1
  15    9   17 1
  16   10   11 1
  17   10   12 1
  18   10   23 1
  19   11   24 1
  20   12   13 1
  21   12   16 1
  22   12   25 1
  23   13   14 1
  24   13   26 1
  25   13   27 1
  26   14   15 1
  27   14   28 1
  28   14   29 1
  29   15   16 1
  30   15   30 1
  31   15   31 1
  32   16   32 1
  33   16   33 1
  34   17   18 1
  35   17   34 1
  36   17   35 1
  37   18   36 1
  38   18   37 1
  39   18   38 1

#	End of record

