#	Name: ASD08070083
#	Creating user name:	WinNT
#	Creation time:	15. 06. 2019 21:14

#	Modifying user name:	WinNT
#	Modification time:	15. 06. 2019 21:14

#	Program:	/corina/corina34_cracker 3.40 0067  02.08.2006

@<TRIPOS>MOLECULE
ASD08070083
  35   35    0    0    0
SMALL
NO_CHARGES


@<TRIPOS>ATOM
   1 C1            -0.0166     1.3733     0.0096 C.ar    
   2 C2             0.0021    -0.0041     0.0020 C.ar    
   3 C3             1.1757     2.0864     0.0020 C.ar    
   4 C4             2.3930     1.4131    -0.0132 C.ar    
   5 C5             2.4198     0.0356    -0.0214 C.ar    
   6 C6             1.2220    -0.6846    -0.0133 C.ar    
   7 C7             1.2460    -2.1604    -0.0215 C.2     
   8 O8             2.3086    -2.7511    -0.0353 O.2     
   9 C9             0.2333    -4.8181    -1.4629 C.3     
  10 C10            0.1137    -4.3179    -0.0219 C.3     
  11 N11            0.0899    -2.8532    -0.0137 N.am    
  12 C12           -1.1791    -4.8524     0.5978 C.3     
  13 C13           -1.2384    -4.4568     2.0746 C.3     
  14 O14            1.1528     3.4435     0.0091 O.3     
  15 C15           -2.5311    -4.9912     2.6943 C.3     
  16 C16           -0.1311     4.0707     0.0244 C.3     
  17 Cl17           3.8797     2.3094    -0.0226 Cl      
  18 H18           -0.9596     1.8996     0.0169 H       
  19 H19           -0.9254    -0.5573     0.0083 H       
  20 H20            3.3649    -0.4869    -0.0336 H       
  21 H21           -0.6201    -4.4653    -2.0419 H       
  22 H22            1.1543    -4.4373    -1.9043 H       
  23 H23            0.2510    -5.9079    -1.4689 H       
  24 H24            0.9671    -4.6707     0.5572 H       
  25 H25           -0.7578    -2.3819    -0.0027 H       
  26 H26           -2.0356    -4.4287     0.0735 H       
  27 H27           -1.2013    -5.9388     0.5115 H       
  28 H28           -0.3818    -4.8805     2.5989 H       
  29 H29           -1.2162    -3.3704     2.1609 H       
  30 H30           -3.3877    -4.5675     2.1699 H       
  31 H31           -2.5533    -6.0776     2.6080 H       
  32 H32           -2.5734    -4.7094     3.7463 H       
  33 H33           -0.6914     3.7729    -0.8619 H       
  34 H34           -0.6747     3.7639     0.9179 H       
  35 H35           -0.0065     5.1535     0.0287 H       
@<TRIPOS>BOND
   1    1    2 ar
   2    1    3 ar
   3    1   18 1
   4    2    6 ar
   5    2   19 1
   6    3    4 ar
   7    3   14 1
   8    4    5 ar
   9    4   17 1
  10    5    6 ar
  11    5   20 1
  12    6    7 1
  13    7    8 2
  14    7   11 am
  15    9   10 1
  16    9   21 1
  17    9   22 1
  18    9   23 1
  19   10   12 1
  20   10   11 1
  21   10   24 1
  22   11   25 1
  23   12   13 1
  24   12   26 1
  25   12   27 1
  26   13   15 1
  27   13   28 1
  28   13   29 1
  29   14   16 1
  30   15   30 1
  31   15   31 1
  32   15   32 1
  33   16   33 1
  34   16   34 1
  35   16   35 1

#	End of record

