#	Name: ASD04590515
#	Creating user name:	WinNT
#	Creation time:	15. 06. 2019 20:51

#	Modifying user name:	WinNT
#	Modification time:	15. 06. 2019 20:51

#	Program:	/corina/corina34_cracker 3.40 0067  02.08.2006

@<TRIPOS>MOLECULE
ASD04590515
  55   59    0    0    0
SMALL
NO_CHARGES


@<TRIPOS>ATOM
   1 C1            -0.0167     1.3832     0.0096 C.ar    
   2 C2             0.0021    -0.0041     0.0020 C.ar    
   3 C3             2.4020     0.0223    -0.0207 C.ar    
   4 C4             2.3769     1.4283    -0.0129 C.ar    
   5 C5             1.1624     2.0987     0.0022 C.ar    
   6 N6             3.7040    -0.3552    -0.0352 N.2     
   7 C7             4.4709     0.7083    -0.0368 C.2     
   8 N8             3.6969     1.8375    -0.0233 N.pl3   
   9 C9             5.9482     0.6906    -0.0510 C.2     
  10 C10            6.7658    -0.4632    -0.0654 C.2     
  11 C11            8.0580    -0.0538    -0.0759 C.2     
  12 N12            8.0646     1.3050    -0.0684 N.pl3   
  13 N13            6.7360     1.7480    -0.0581 N.2     
  14 N14            6.3191    -1.7941    -0.0684 N.am    
  15 C15            7.2111    -2.8043    -0.0828 C.2     
  16 O16            8.4024    -2.5631    -0.0932 O.2     
  17 C17            1.1969    -0.6870    -0.0130 C.ar    
  18 C18            6.7400    -4.2079    -0.0860 C.ar    
  19 C19            7.6504    -5.2721    -0.1009 C.ar    
  20 C20           -1.2962    -0.7693     0.0108 C.3     
  21 N21           -1.7317    -1.0105    -1.3713 N.3     
  22 C22           -2.8603    -1.9518    -1.4113 C.3     
  23 C23           -0.6175    -1.4976    -2.1974 C.3     
  24 C24           -1.0994    -1.6784    -3.6393 C.3     
  25 O25           -2.2160    -2.5718    -3.6550 O.3     
  26 C26           -3.3197    -2.1280    -2.8611 C.3     
  27 C27            7.1696    -6.5676    -0.1034 C.ar    
  28 N28            5.8735    -6.8099    -0.0925 N.ar    
  29 C29            4.9789    -5.8366    -0.0783 C.ar    
  30 C30            5.3757    -4.5068    -0.0684 C.ar    
  31 Cl31           9.3594    -4.9679    -0.1165 Cl      
  32 O32            3.6565    -6.1416    -0.0675 O.3     
  33 C33            3.3105    -7.5281    -0.0722 C.3     
  34 H34           -0.9614     1.9066     0.0169 H       
  35 H35            1.1403     3.1784     0.0079 H       
  36 H36            4.0155     2.7537    -0.0212 H       
  37 H37            8.9278    -0.6939    -0.0877 H       
  38 H38            8.8529     1.8703    -0.0725 H       
  39 H39            5.3684    -1.9867    -0.0601 H       
  40 H40            1.2037    -1.7669    -0.0185 H       
  41 H41           -1.1522    -1.7232     0.5181 H       
  42 H42           -2.0559    -0.1898     0.5353 H       
  43 H43           -2.5454    -2.9149    -1.0097 H       
  44 H44           -3.6831    -1.5591    -0.8140 H       
  45 H45            0.1968    -0.7734    -2.1739 H       
  46 H46           -0.2667    -2.4535    -1.8083 H       
  47 H47           -1.4000    -0.7130    -4.0463 H       
  48 H48           -0.2926    -2.0935    -4.2433 H       
  49 H49           -4.1187    -2.8683    -2.9023 H       
  50 H50           -3.6848    -1.1756    -3.2455 H       
  51 H51            7.8654    -7.3935    -0.1149 H       
  52 H52            4.6411    -3.7152    -0.0565 H       
  53 H53            3.7295    -8.0102     0.8110 H       
  54 H54            2.2255    -7.6318    -0.0625 H       
  55 H55            3.7125    -7.9998    -0.9689 H       
@<TRIPOS>BOND
   1    1    2 ar
   2    1    5 ar
   3    1   34 1
   4    2   17 ar
   5    2   20 1
   6    3    4 ar
   7    3    6 1
   8    3   17 ar
   9    4    5 ar
  10    4    8 1
  11    5   35 1
  12    6    7 2
  13    7    8 1
  14    7    9 1
  15    8   36 1
  16    9   10 1
  17    9   13 2
  18   10   11 2
  19   10   14 1
  20   11   12 1
  21   11   37 1
  22   12   13 1
  23   12   38 1
  24   14   15 am
  25   14   39 1
  26   15   16 2
  27   15   18 1
  28   17   40 1
  29   18   19 ar
  30   18   30 ar
  31   19   27 ar
  32   19   31 1
  33   20   21 1
  34   20   41 1
  35   20   42 1
  36   21   22 1
  37   21   23 1
  38   22   26 1
  39   22   43 1
  40   22   44 1
  41   23   24 1
  42   23   45 1
  43   23   46 1
  44   24   25 1
  45   24   47 1
  46   24   48 1
  47   25   26 1
  48   26   49 1
  49   26   50 1
  50   27   28 ar
  51   27   51 1
  52   28   29 ar
  53   29   30 ar
  54   29   32 1
  55   30   52 1
  56   32   33 1
  57   33   53 1
  58   33   54 1
  59   33   55 1

#	End of record

