#	Name: ASD03740168
#	Creating user name:	WinNT
#	Creation time:	15. 06. 2019 20:46

#	Modifying user name:	WinNT
#	Modification time:	15. 06. 2019 20:46

#	Program:	/corina/corina34_cracker 3.40 0067  02.08.2006

@<TRIPOS>MOLECULE
ASD03740168
  60   64    0    0    0
SMALL
NO_CHARGES


@<TRIPOS>ATOM
   1 C1            -0.0705     1.3748     0.9140 C.ar    
   2 C2            -0.0503    -0.0239     0.8711 C.ar    
   3 C3            -1.2045    -0.7322     0.7093 C.ar    
   4 C4            -2.4225    -0.0667     0.5849 C.ar    
   5 C5            -2.4563     1.3407     0.6270 C.ar    
   6 C6            -1.2704     2.0589     0.7978 C.ar    
   7 N7            -3.7166    -0.4882     0.4158 N.pl3   
   8 N8            -4.5583     0.6266     0.3513 N.2     
   9 C9            -3.8601     1.7228     0.4710 C.2     
  10 O10           -4.3490     2.9910     0.4535 O.3     
  11 C11           -4.1484    -1.8846     0.3175 C.3     
  12 C12           -4.4655    -2.4105     1.6937 C.ar    
  13 C13           -5.7461    -2.2918     2.2006 C.ar    
  14 C14           -6.0375    -2.7739     3.4628 C.ar    
  15 C15           -5.0472    -3.3754     4.2188 C.ar    
  16 C16           -3.7658    -3.4939     3.7110 C.ar    
  17 C17           -3.4770    -3.0165     2.4464 C.ar    
  18 C18           -5.7605     3.1400     0.2879 C.3     
  19 C19           -6.1205     4.6270     0.2931 C.3     
  20 C20           -7.6319     4.7865     0.1159 C.3     
  21 Cl21          -5.4123    -3.9806     5.8044 Cl      
  22 N22           -7.9775     6.2142     0.1209 N.3     
  23 C23           -9.3953     6.4159    -0.2302 C.3     
  24 C24           -7.7316     6.8142     1.4495 C.3     
  25 C25           -8.8346     7.8903     1.6079 C.3     
  26 C26          -10.0464     7.1992     0.9290 C.3     
  27 C27          -10.0878     5.0618    -0.3972 C.3     
  28 C28            1.1966     2.1281     1.0908 C.2     
  29 C29            1.3463     3.4760     1.1530 C.2     
  30 O30            2.6484     3.7516     1.3188 O.3     
  31 C31            3.3704     2.6221     1.3687 C.2     
  32 C32            2.5447     1.5695     1.2408 C.2     
  33 H33            0.8893    -0.5479     0.9667 H       
  34 H34           -1.1745    -1.8113     0.6772 H       
  35 H35           -1.2873     3.1382     0.8312 H       
  36 H36           -5.0383    -1.9465    -0.3090 H       
  37 H37           -3.3506    -2.4814    -0.1246 H       
  38 H38           -6.5190    -1.8219     1.6105 H       
  39 H39           -7.0379    -2.6807     3.8588 H       
  40 H40           -2.9923    -3.9634     4.3007 H       
  41 H41           -2.4767    -3.1090     2.0499 H       
  42 H42           -6.0640     2.6960    -0.6601 H       
  43 H43           -6.2773     2.6382     1.1061 H       
  44 H44           -5.8171     5.0710     1.2412 H       
  45 H45           -5.6038     5.1288    -0.5250 H       
  46 H46           -7.9353     4.3425    -0.8322 H       
  47 H47           -8.1486     4.2847     0.9340 H       
  48 H48           -9.4705     6.9873    -1.1554 H       
  49 H49           -7.8235     6.0588     2.2299 H       
  50 H50           -6.7444     7.2753     1.4809 H       
  51 H51           -9.0378     8.0892     2.6602 H       
  52 H52           -8.5640     8.8069     1.0840 H       
  53 H53          -10.7484     7.9403     0.5470 H       
  54 H54          -10.5412     6.5198     1.6231 H       
  55 H55           -9.9424     4.4658     0.5038 H       
  56 H56          -11.1540     5.2170    -0.5621 H       
  57 H57           -9.6603     4.5381    -1.2522 H       
  58 H58            0.5512     4.2034     1.0806 H       
  59 H59            4.4416     2.5673     1.4953 H       
  60 H60            2.8188     0.5249     1.2411 H       
@<TRIPOS>BOND
   1    1    2 ar
   2    1   28 1
   3    1    6 ar
   4    2    3 ar
   5    2   33 1
   6    3    4 ar
   7    3   34 1
   8    4    5 ar
   9    4    7 1
  10    5    6 ar
  11    5    9 1
  12    6   35 1
  13    7    8 1
  14    7   11 1
  15    8    9 2
  16    9   10 1
  17   10   18 1
  18   11   12 1
  19   11   36 1
  20   11   37 1
  21   12   13 ar
  22   12   17 ar
  23   13   14 ar
  24   13   38 1
  25   14   15 ar
  26   14   39 1
  27   15   16 ar
  28   15   21 1
  29   16   17 ar
  30   16   40 1
  31   17   41 1
  32   18   19 1
  33   18   42 1
  34   18   43 1
  35   19   20 1
  36   19   44 1
  37   19   45 1
  38   20   22 1
  39   20   46 1
  40   20   47 1
  41   22   23 1
  42   22   24 1
  43   23   27 1
  44   23   26 1
  45   23   48 1
  46   24   25 1
  47   24   49 1
  48   24   50 1
  49   25   26 1
  50   25   51 1
  51   25   52 1
  52   26   53 1
  53   26   54 1
  54   27   55 1
  55   27   56 1
  56   27   57 1
  57   28   29 2
  58   28   32 1
  59   29   30 1
  60   29   58 1
  61   30   31 1
  62   31   32 2
  63   31   59 1
  64   32   60 1

#	End of record

