#	Name: ASD04500008
#	Creating user name:	WinNT
#	Creation time:	15. 06. 2019 20:49

#	Modifying user name:	WinNT
#	Modification time:	15. 06. 2019 20:49

#	Program:	/corina/corina34_cracker 3.40 0067  02.08.2006

@<TRIPOS>MOLECULE
ASD04500008
 160  149    0    0    0
SMALL
NO_CHARGES


@<TRIPOS>ATOM
   1 O1             2.5957     6.6917    -1.1911 O.3     
   2 C2             2.0504     5.4639    -1.6783 C.3     
   3 C3             2.8368     4.2892    -1.0907 C.3     
   4 C4             4.3151     4.4369    -1.4637 C.3     
   5 C5             4.8254     5.7894    -0.9572 C.3     
   6 C6             3.9622     6.9062    -1.5500 C.3     
   7 C7             0.5828     5.3558    -1.2597 C.3     
   8 O8             4.4041     8.1877    -1.0296 O.3     
   9 O9             5.0805     3.3675    -0.8482 O.3     
  10 O10            2.3225     3.0429    -1.6298 O.3     
  11 O11            6.2057     5.9724    -1.3692 O.3     
  12 O12           -0.1847     6.4021    -1.9112 O.3     
  13 C13           -1.5053     6.4471    -1.6467 C.2     
  14 C14           -2.3478     7.4830    -2.2729 C.ar    
  15 O15           -2.0018     5.6342    -0.8924 O.2     
  16 C16            3.8122     9.2890    -1.5322 C.2     
  17 C17            4.2104    10.6250    -1.0508 C.ar    
  18 O18            2.9506     9.1815    -2.3821 O.2     
  19 C19            6.9904     6.7168    -0.5655 C.2     
  20 C20            8.4034     6.9453    -0.9206 C.ar    
  21 O21            6.5338     7.1997     0.4517 O.2     
  22 C22            6.1851     2.9528    -1.4992 C.2     
  23 C23            7.0117     1.8705    -0.9335 C.ar    
  24 O24            6.5000     3.4707    -2.5524 O.2     
  25 C25            1.3232     2.4480    -0.9491 C.2     
  26 C26            0.7513     1.1795    -1.4375 C.ar    
  27 O27            0.8934     2.9568     0.0672 O.2     
  28 C28           -3.9346     9.4330    -3.4528 C.ar    
  29 C29           -2.5710     9.3844    -3.7310 C.ar    
  30 C30           -1.7790     8.4151    -3.1452 C.ar    
  31 C31           -3.7176     7.5308    -1.9995 C.ar    
  32 C32           -4.5049     8.5023    -2.5881 C.ar    
  33 C33            5.5765    12.0037     0.3720 C.ar    
  34 C34            5.2054    10.7505    -0.0774 C.ar    
  35 C35            3.5974    11.7681    -1.5712 C.ar    
  36 C36            3.9725    13.0188    -1.1182 C.ar    
  37 C37            4.9601    13.1406    -0.1441 C.ar    
  38 C38            8.9284     6.3952    -2.0932 C.ar    
  39 C39            9.2185     7.7171    -0.0879 C.ar    
  40 C40           10.5423     7.9300    -0.4234 C.ar    
  41 C41           11.0641     7.3764    -1.5896 C.ar    
  42 C42           10.2529     6.6114    -2.4237 C.ar    
  43 C43            8.1576     1.4394    -1.6076 C.ar    
  44 C44            8.9308     0.4252    -1.0749 C.ar    
  45 C45            8.5687    -0.1674     0.1321 C.ar    
  46 C46            7.4276     0.2602     0.8059 C.ar    
  47 C47            6.6539     1.2779     0.2807 C.ar    
  48 C48           -0.2852     0.5614    -0.7325 C.ar    
  49 C49           -0.8193    -0.6274    -1.1925 C.ar    
  50 C50           -0.3257    -1.2094    -2.3573 C.ar    
  51 C51            0.7072    -0.5960    -3.0615 C.ar    
  52 C52            1.2409     0.5961    -2.6094 C.ar    
  53 O53           -2.0173    10.2947    -4.5763 O.3     
  54 O54           -4.7110    10.3871    -4.0300 O.3     
  55 O55           -5.8370     8.5526    -2.3185 O.3     
  56 O56            6.5447    12.1265     1.3192 O.3     
  57 O57            5.3266    14.3714     0.2998 O.3     
  58 O58            3.3767    14.1316    -1.6245 O.3     
  59 O59           11.3359     8.6814     0.3862 O.3     
  60 O60           12.3658     7.5877    -1.9172 O.3     
  61 O61           10.7644     6.0764    -3.5647 O.3     
  62 O62           10.0459     0.0052    -1.7304 O.3     
  63 O63            9.3302    -1.1649     0.6531 O.3     
  64 O64            7.0766    -0.3211     1.9843 O.3     
  65 O65           -1.8276    -1.2296    -0.5067 O.3     
  66 O66           -0.8526    -2.3782    -2.8073 O.3     
  67 O67            1.1876    -1.1676    -4.1982 O.3     
  68 S68           -1.5159    11.5553    -3.8864 S.o2    
  69 S69           -5.3477     9.9559    -5.3434 S.o2    
  70 S70           -6.1882     9.3692    -1.0830 S.o2    
  71 S71            6.0369    11.9784     2.7463 S.o2    
  72 S72            6.4530    15.0084    -0.5014 S.o2    
  73 S73            2.1343    14.5698    -0.8624 S.o2    
  74 S74           10.6357     6.9789    -4.7835 S.o2    
  75 S75           13.3154     6.5150    -1.4035 S.o2    
  76 S76           11.2545    10.1773     0.1176 S.o2    
  77 S77            7.5648     0.4302     3.2147 S.o2    
  78 S78            8.9281    -2.5575     0.1889 S.o2    
  79 S79           11.3035     0.7856    -1.3754 S.o2    
  80 S80            0.5673    -0.6208    -5.4760 S.o2    
  81 S81           -0.1896    -3.6198    -2.2281 S.o2    
  82 S82           -3.2179    -0.7619    -0.9125 S.o2    
  83 O83           -4.1371    -1.2461     0.1057 O.co2   
  84 O84           -3.1739     0.6913    -0.9615 O.co2   
  85 O85           -3.4922    -1.3441    -2.2170 O.co2   
  86 O86           -0.6236    -4.7451    -3.0413 O.co2   
  87 O87            1.2468    -3.4066    -2.3132 O.co2   
  88 O88           -0.6439    -3.7341    -0.8509 O.co2   
  89 O89            0.9343    -1.5359    -6.5455 O.co2   
  90 O90           -0.8708    -0.5815    -5.2606 O.co2   
  91 O91            1.1255     0.7072    -5.6782 O.co2   
  92 O92           12.3072     0.4384    -2.3694 O.co2   
  93 O93           10.9502     2.1958    -1.4259 O.co2   
  94 O94           11.6927     0.3679    -0.0375 O.co2   
  95 O95            9.6019    -3.5027     1.0656 O.co2   
  96 O96            7.4807    -2.6380     0.3087 O.co2   
  97 O97            9.3695    -2.6832    -1.1915 O.co2   
  98 O98            7.4082    -0.4709     4.3459 O.co2   
  99 O99            8.9593     0.7674     2.9744 O.co2   
 100 O100           6.7306     1.6152     3.3410 O.co2   
 101 O101          12.3760    10.7898     0.8127 O.co2   
 102 O102          11.3455    10.3501    -1.3239 O.co2   
 103 O103           9.9749    10.6286     0.6419 O.co2   
 104 O104          14.6622     7.0482    -1.5370 O.co2   
 105 O105          12.9602     6.2708    -0.0141 O.co2   
 106 O106          13.1089     5.3391    -2.2345 O.co2   
 107 O107          10.8842     6.1463    -5.9501 O.co2   
 108 O108           9.2817     7.5105    -4.7706 O.co2   
 109 O109          11.6347     8.0261    -4.6374 O.co2   
 110 O110           1.4317    15.5167    -1.7144 O.co2   
 111 O111           1.3489    13.3705    -0.6155 O.co2   
 112 O112           2.5950    15.1845     0.3729 O.co2   
 113 O113           6.9359    16.1374     0.2784 O.co2   
 114 O114           7.4745    13.9873    -0.6739 O.co2   
 115 O115           5.8798    15.4272    -1.7711 O.co2   
 116 O116           7.0998    12.4492     3.6207 O.co2   
 117 O117           4.8395    12.7976     2.8526 O.co2   
 118 O118           5.7515    10.5660     2.9455 O.co2   
 119 O119          -7.5729     9.0640    -0.7582 O.co2   
 120 O120          -5.2755     8.9508    -0.0304 O.co2   
 121 O121          -6.0065    10.7678    -1.4391 O.co2   
 122 O122          -5.8577    11.1615    -5.9780 O.co2   
 123 O123          -4.2994     9.3261    -6.1310 O.co2   
 124 O124          -6.4126     9.0238    -5.0072 O.co2   
 125 O125          -1.2983    12.5459    -4.9292 O.co2   
 126 O126          -2.5542    11.9640    -2.9532 O.co2   
 127 O127          -0.2805    11.1981    -3.2064 O.co2   
 128 H128           2.1210     5.4409    -2.7658 H       
 129 H129           2.7333     4.2879    -0.0056 H       
 130 H130           4.4244     4.3884    -2.5471 H       
 131 H131           4.7621     5.8185     0.1305 H       
 132 H132           4.0579     6.9021    -2.6358 H       
 133 H133           0.1918     4.3817    -1.5538 H       
 134 H134           0.5042     5.4673    -0.1782 H       
 135 H135          -0.7214     8.3781    -3.3611 H       
 136 H136          -4.1605     6.8090    -1.3293 H       
 137 H137           5.6836     9.8690     0.3235 H       
 138 H138           2.8316    11.6742    -2.3270 H       
 139 H139           8.2998     5.8015    -2.7404 H       
 140 H140           8.8142     8.1471     0.8166 H       
 141 H141           8.4385     1.8981    -2.5442 H       
 142 H142           5.7714     1.6121     0.8059 H       
 143 H143          -0.6682     1.0122     0.1711 H       
 144 H144           2.0417     1.0716    -3.1561 H       
 145 Na145         19.6622    21.1374     9.3459 Du      
 146 Na146         24.6622    26.1374    14.3459 Du      
 147 Na147         29.6622    31.1374    19.3459 Du      
 148 Na148         34.6622    36.1374    24.3459 Du      
 149 Na149         39.6622    41.1374    29.3459 Du      
 150 Na150         44.6622    46.1374    34.3459 Du      
 151 Na151         49.6622    51.1374    39.3459 Du      
 152 Na152         54.6622    56.1374    44.3459 Du      
 153 Na153         59.6622    61.1374    49.3459 Du      
 154 Na154         64.6622    66.1374    54.3459 Du      
 155 Na155         69.6622    71.1374    59.3459 Du      
 156 Na156         74.6622    76.1374    64.3459 Du      
 157 Na157         79.6622    81.1374    69.3459 Du      
 158 Na158         84.6622    86.1374    74.3459 Du      
 159 Na159         89.6622    91.1374    79.3459 Du      
 160 Na160         94.6622    96.1374    84.3459 Du      
@<TRIPOS>BOND
   1    1    2 1
   2    1    6 1
   3    2    3 1
   4    2    7 1
   5    2  128 1
   6    3    4 1
   7    3   10 1
   8    3  129 1
   9    4    5 1
  10    4    9 1
  11    4  130 1
  12    5    6 1
  13    5   11 1
  14    5  131 1
  15    6    8 1
  16    6  132 1
  17    7   12 1
  18    7  133 1
  19    7  134 1
  20    8   16 1
  21    9   22 1
  22   10   25 1
  23   11   19 1
  24   12   13 1
  25   13   14 1
  26   13   15 2
  27   14   31 ar
  28   14   30 ar
  29   16   17 1
  30   16   18 2
  31   17   35 ar
  32   17   34 ar
  33   19   20 1
  34   19   21 2
  35   20   39 ar
  36   20   38 ar
  37   22   23 1
  38   22   24 2
  39   23   43 ar
  40   23   47 ar
  41   25   26 1
  42   25   27 2
  43   26   48 ar
  44   26   52 ar
  45   28   29 ar
  46   28   32 ar
  47   28   54 1
  48   29   30 ar
  49   29   53 1
  50   30  135 1
  51   31   32 ar
  52   31  136 1
  53   32   55 1
  54   33   34 ar
  55   33   37 ar
  56   33   56 1
  57   34  137 1
  58   35   36 ar
  59   35  138 1
  60   36   37 ar
  61   36   58 1
  62   37   57 1
  63   38   42 ar
  64   38  139 1
  65   39   40 ar
  66   39  140 1
  67   40   41 ar
  68   40   59 1
  69   41   42 ar
  70   41   60 1
  71   42   61 1
  72   43   44 ar
  73   43  141 1
  74   44   45 ar
  75   44   62 1
  76   45   46 ar
  77   45   63 1
  78   46   47 ar
  79   46   64 1
  80   47  142 1
  81   48   49 ar
  82   48  143 1
  83   49   50 ar
  84   49   65 1
  85   50   51 ar
  86   50   66 1
  87   51   52 ar
  88   51   67 1
  89   52  144 1
  90   53   68 1
  91   54   69 1
  92   55   70 1
  93   56   71 1
  94   57   72 1
  95   58   73 1
  96   59   76 1
  97   60   75 1
  98   61   74 1
  99   62   79 1
 100   63   78 1
 101   64   77 1
 102   65   82 1
 103   66   81 1
 104   67   80 1
 105   68  125 ar
 106   68  126 ar
 107   68  127 ar
 108   69  122 ar
 109   69  123 ar
 110   69  124 ar
 111   70  119 ar
 112   70  120 ar
 113   70  121 ar
 114   71  116 ar
 115   71  117 ar
 116   71  118 ar
 117   72  113 ar
 118   72  114 ar
 119   72  115 ar
 120   73  110 ar
 121   73  111 ar
 122   73  112 ar
 123   74  107 ar
 124   74  108 ar
 125   74  109 ar
 126   75  104 ar
 127   75  105 ar
 128   75  106 ar
 129   76  101 ar
 130   76  102 ar
 131   76  103 ar
 132   77   98 ar
 133   77   99 ar
 134   77  100 ar
 135   78   95 ar
 136   78   96 ar
 137   78   97 ar
 138   79   92 ar
 139   79   93 ar
 140   79   94 ar
 141   80   89 ar
 142   80   90 ar
 143   80   91 ar
 144   81   86 ar
 145   81   87 ar
 146   81   88 ar
 147   82   83 ar
 148   82   84 ar
 149   82   85 ar

#	End of record

