#	Name: ASD01903284
#	Creating user name:	WinNT
#	Creation time:	15. 06. 2019 19:54

#	Modifying user name:	WinNT
#	Modification time:	15. 06. 2019 19:54

#	Program:	/corina/corina34_cracker 3.40 0067  02.08.2006

@<TRIPOS>MOLECULE
ASD01903284
  42   45    0    0    0
SMALL
NO_CHARGES


@<TRIPOS>ATOM
   1 C1             0.0316     1.3107     0.0771 C.ar    
   2 C2            -1.0986     1.6193    -0.6626 C.ar    
   3 C3            -1.0979     2.7497    -1.4652 C.ar    
   4 C4             0.0427     3.5360    -1.4986 C.ar    
   5 C5             1.1430     3.1652    -0.7285 C.ar    
   6 N6             1.1011     2.0746     0.0269 N.ar    
   7 C7             2.3700     3.9946    -0.7534 C.2     
   8 O8             2.4140     4.9940    -1.4436 O.2     
   9 N9             3.4376     3.6411    -0.0106 N.am    
  10 C10            4.6295     4.3682    -0.1080 C.ar    
  11 C11            4.5904     5.7426    -0.3032 C.ar    
  12 C12            5.7680     6.4602    -0.3988 C.ar    
  13 C13            6.9903     5.8053    -0.2993 C.ar    
  14 C14            7.0277     4.4317    -0.1042 C.ar    
  15 C15            5.8514     3.7159    -0.0035 C.ar    
  16 N16            8.1868     6.5327    -0.4018 N.am    
  17 C17            8.8363     6.7710    -1.5555 C.2     
  18 C18           10.0473     7.5649    -1.2589 C.ar    
  19 C19           10.0462     7.7634     0.1368 C.ar    
  20 C20            8.8316     7.0879     0.6402 C.2     
  21 O21            8.4863     6.3962    -2.6564 O.2     
  22 O22            8.4787     7.0365     1.8012 O.2     
  23 C23           12.0893     8.8099    -1.4204 C.ar    
  24 C24           12.0886     9.0039    -0.0518 C.ar    
  25 C25           11.0698     8.4835     0.7312 C.ar    
  26 C26           11.0720     8.0913    -2.0288 C.ar    
  27 F27            5.7311     7.7972    -0.5892 F       
  28 C28           11.0807     7.8830    -3.5214 C.3     
  29 H29            0.0328     0.4333     0.7068 H       
  30 H30           -1.9716     0.9852    -0.6146 H       
  31 H31           -1.9664     3.0113    -2.0514 H       
  32 H32            0.0783     4.4234    -2.1130 H       
  33 H33            3.3800     2.8827     0.5914 H       
  34 H34            3.6404     6.2504    -0.3807 H       
  35 H35            7.9773     3.9232    -0.0270 H       
  36 H36            5.8814     2.6470     0.1483 H       
  37 H37           12.8885     9.2204    -2.0197 H       
  38 H38           12.8866     9.5657     0.4106 H       
  39 H39           11.0739     8.6390     1.7999 H       
  40 H40           10.5444     8.6994    -4.0053 H       
  41 H41           12.1100     7.8620    -3.8793 H       
  42 H42           10.5939     6.9372    -3.7591 H       
@<TRIPOS>BOND
   1    1    2 ar
   2    1    6 ar
   3    1   29 1
   4    2    3 ar
   5    2   30 1
   6    3    4 ar
   7    3   31 1
   8    4    5 ar
   9    4   32 1
  10    5    6 ar
  11    5    7 1
  12    7    8 2
  13    7    9 am
  14    9   10 1
  15    9   33 1
  16   10   11 ar
  17   10   15 ar
  18   11   12 ar
  19   11   34 1
  20   12   27 1
  21   12   13 ar
  22   13   14 ar
  23   13   16 1
  24   14   15 ar
  25   14   35 1
  26   15   36 1
  27   16   17 am
  28   16   20 am
  29   17   18 1
  30   17   21 2
  31   18   19 ar
  32   18   26 ar
  33   19   20 1
  34   19   25 ar
  35   20   22 2
  36   23   24 ar
  37   23   26 ar
  38   23   37 1
  39   24   25 ar
  40   24   38 1
  41   25   39 1
  42   26   28 1
  43   28   40 1
  44   28   41 1
  45   28   42 1

#	End of record

