#	Name: ASD08150746
#	Creating user name:	WinNT
#	Creation time:	15. 06. 2019 21:16

#	Modifying user name:	WinNT
#	Modification time:	15. 06. 2019 21:16

#	Program:	/corina/corina34_cracker 3.40 0067  02.08.2006

@<TRIPOS>MOLECULE
ASD08150746
  50   53    0    0    0
SMALL
NO_CHARGES


@<TRIPOS>ATOM
   1 C1            -0.0842     1.1643     0.0701 C.2     
   2 N2             0.1087    -0.1403     0.1558 N.2     
   3 C3             1.3195    -0.6712     0.0868 C.2     
   4 C4             2.4176     0.1713    -0.0808 C.2     
   5 C5             2.2036     1.5612    -0.1715 C.2     
   6 N6             0.9329     2.0547    -0.0939 N.am    
   7 S7            -1.5689     2.1316     0.1221 S.3     
   8 C8             0.5557     3.3731    -0.1643 C.2     
   9 C9            -0.7267     3.6785    -0.0726 C.2     
  10 O10            3.1481     2.3191    -0.3179 O.2     
  11 S11            4.8716    -0.2222    -1.5365 S.3     
  12 C12            3.7819    -0.3833    -0.1616 C.2     
  13 N13            4.3758    -1.0712     0.7734 N.2     
  14 C14            5.5986    -1.4855     0.5228 C.2     
  15 C15            6.0943    -1.1505    -0.6708 C.2     
  16 C16            1.5079    -2.1629     0.1884 C.3     
  17 C17            1.1260    -2.6307     1.5942 C.3     
  18 N18            0.6545    -2.8312    -0.7972 N.pl3   
  19 N19           -0.9640    -4.4380    -2.8587 N.2     
  20 C20           -1.2917    -5.4197    -3.6476 C.2     
  21 N21           -0.3688    -6.4188    -3.5559 N.pl3   
  22 C22            0.5825    -6.0183    -2.6521 C.ar    
  23 N23            1.6961    -6.5534    -2.1626 N.ar    
  24 C24            2.4212    -5.9015    -1.2781 C.ar    
  25 N25            2.0896    -4.7027    -0.8348 N.ar    
  26 C26            0.9935    -4.0879    -1.2672 C.ar    
  27 C27            0.1868    -4.7436    -2.2125 C.ar    
  28 C28            1.5887     4.4554    -0.3445 C.3     
  29 H29           -1.1687     4.6631    -0.1123 H       
  30 H30            6.1670    -2.0609     1.2386 H       
  31 H31            7.0759    -1.4051    -1.0423 H       
  32 H32            2.5511    -2.4115    -0.0063 H       
  33 H33            1.2623    -3.7096     1.6676 H       
  34 H34            1.7609    -2.1335     2.3275 H       
  35 H35            0.0827    -2.3821     1.7889 H       
  36 H36           -0.1481    -2.3927    -1.1205 H       
  37 H37           -2.1662    -5.4402    -4.2810 H       
  38 H38           -0.3824    -7.2589    -4.0406 H       
  39 H39            3.3207    -6.3649    -0.9004 H       
  40 H40            1.7447     4.6353    -1.4082 H       
  41 H41            1.2412     5.3722     0.1319 H       
  42 H42            2.5272     4.1417     0.1124 H       
  43 C43           13.2474    12.3604     8.4743 C.2     
  44 C44           13.2678    10.8536     8.4660 C.3     
  45 O45           14.2854    12.9787     8.4677 O.2     
  46 O46           12.0759    13.0157     8.4835 O.3     
  47 F47           14.5929    10.4053     8.4510 F       
  48 F48           12.6256    10.3722     9.6119 F       
  49 F49           12.6038    10.3845     7.3275 F       
  50 H50           12.1134    13.9820     8.4885 H       
@<TRIPOS>BOND
   1    1    2 2
   2    1    6 1
   3    1    7 1
   4    2    3 1
   5    3    4 2
   6    3   16 1
   7    4    5 1
   8    4   12 1
   9    5    6 am
  10    5   10 2
  11    6    8 1
  12    7    9 1
  13    8    9 2
  14    8   28 1
  15    9   29 1
  16   11   12 1
  17   11   15 1
  18   12   13 2
  19   13   14 1
  20   14   15 2
  21   14   30 1
  22   15   31 1
  23   16   17 1
  24   16   18 1
  25   16   32 1
  26   17   33 1
  27   17   34 1
  28   17   35 1
  29   18   26 1
  30   18   36 1
  31   19   20 2
  32   19   27 1
  33   20   21 1
  34   20   37 1
  35   21   22 1
  36   21   38 1
  37   22   23 ar
  38   22   27 ar
  39   23   24 ar
  40   24   25 ar
  41   24   39 1
  42   25   26 ar
  43   26   27 ar
  44   28   40 1
  45   28   41 1
  46   28   42 1
  47   43   44 1
  48   43   45 2
  49   43   46 1
  50   44   47 1
  51   44   48 1
  52   44   49 1
  53   46   50 1

#	End of record

