#	Name: ASD01230082
#	Creating user name:	WinNT
#	Creation time:	15. 06. 2019 19:11

#	Modifying user name:	WinNT
#	Modification time:	15. 06. 2019 19:11

#	Program:	/corina/corina34_cracker 3.40 0067  02.08.2006

@<TRIPOS>MOLECULE
ASD01230082
  63   66    0    0    0
SMALL
NO_CHARGES


@<TRIPOS>ATOM
   1 C1            -0.0449     1.4302    -0.5364 C.ar    
   2 C2            -0.0156     0.0359    -0.5142 C.ar    
   3 C3            -1.2755    -0.7325    -0.3866 C.2     
   4 N4            -2.4331    -0.0972    -0.2932 N.2     
   5 C5            -3.5743    -0.7739    -0.1780 C.2     
   6 N6            -3.5811    -2.1403    -0.1530 N.pl3   
   7 C7            -2.4057    -2.8286    -0.2466 C.2     
   8 C8            -1.2446    -2.1427    -0.3701 C.2     
   9 C9            -2.4011    -4.3353    -0.2195 C.3     
  10 C10            1.2049    -0.6320    -0.6131 C.ar    
  11 C11            2.3751     0.0893    -0.7322 C.ar    
  12 C12            2.3396     1.4721    -0.7531 C.ar    
  13 C13            1.1321     2.1403    -0.6559 C.ar    
  14 C14           -4.9167    -0.3600    -0.0644 C.2     
  15 C15           -5.6979    -1.5261     0.0267 C.2     
  16 N16           -4.9082    -2.5659    -0.0259 N.2     
  17 C17           -5.4051     1.0213    -0.0443 C.2     
  18 O18           -4.6186     1.9463    -0.1309 O.2     
  19 C19           -7.1834     2.5838     0.1875 C.ar    
  20 N20           -6.7252     1.2676     0.0702 N.am    
  21 C21           -6.5434     3.6072    -0.4990 C.ar    
  22 C22           -6.9987     4.9060    -0.3813 C.ar    
  23 C23           -8.0901     5.1877     0.4194 C.ar    
  24 S24          -10.1200     4.5351     2.1239 S.o2    
  25 N25          -11.4704     4.4105     1.1735 N.am    
  26 O26          -10.0067     5.9054     2.4824 O.2     
  27 O27          -10.2033     3.4862     3.0790 O.2     
  28 C28           -8.7295     4.1707     1.1049 C.ar    
  29 C29           -8.2832     2.8693     0.9866 C.ar    
  30 C30          -11.8507     3.1138     0.6075 C.3     
  31 C31          -13.2926     3.1818     0.1006 C.3     
  32 N32          -13.6740     1.8817    -0.4669 N.3     
  33 C33          -15.1152     1.8317    -0.7468 C.3     
  34 C34          -12.8925     1.5849    -1.6749 C.3     
  35 F35           -1.0860    -4.7997    -0.3298 F       
  36 F36           -2.9538    -4.7818     0.9856 F       
  37 C37            3.6215     2.2538    -0.8830 C.3     
  38 F38            3.8991     2.4728    -2.2365 F       
  39 F39            3.4859     3.4836    -0.2299 F       
  40 F40            4.6693     1.5308    -0.3030 F       
  41 H41           -0.9873     1.9528    -0.4646 H       
  42 H42           -0.3047    -2.6692    -0.4458 H       
  43 H43           -2.9917    -4.7155    -1.0531 H       
  44 H44            1.2340    -1.7115    -0.5961 H       
  45 H45            3.3208    -0.4267    -0.8089 H       
  46 H46            1.1106     3.2199    -0.6735 H       
  47 H47           -6.7730    -1.5570     0.1244 H       
  48 H48           -7.3576     0.5321     0.0711 H       
  49 H49           -5.6904     3.3880    -1.1241 H       
  50 H50           -6.5014     5.7024    -0.9150 H       
  51 H51           -8.4439     6.2040     0.5100 H       
  52 H52          -12.0095     5.1960     0.9916 H       
  53 H53           -8.7831     2.0756     1.5219 H       
  54 H54          -11.1855     2.8698    -0.2208 H       
  55 H55          -11.7715     2.3447     1.3759 H       
  56 H56          -13.9578     3.4259     0.9289 H       
  57 H57          -13.3718     3.9509    -0.6677 H       
  58 H58          -15.3741     2.6140    -1.4603 H       
  59 H59          -15.3704     0.8585    -1.1661 H       
  60 H60          -15.6706     1.9856     0.1784 H       
  61 H61          -11.8320     1.5594    -1.4244 H       
  62 H62          -13.1948     0.6170    -2.0745 H       
  63 H63          -13.0709     2.3583    -2.4220 H       
@<TRIPOS>BOND
   1    1    2 ar
   2    1   13 ar
   3    1   41 1
   4    2    3 1
   5    2   10 ar
   6    3    4 2
   7    3    8 1
   8    4    5 1
   9    5    6 1
  10    5   14 2
  11    6    7 1
  12    6   16 1
  13    7    8 2
  14    7    9 1
  15    8   42 1
  16    9   35 1
  17    9   36 1
  18    9   43 1
  19   10   11 ar
  20   10   44 1
  21   11   12 ar
  22   11   45 1
  23   12   37 1
  24   12   13 ar
  25   13   46 1
  26   14   15 1
  27   14   17 1
  28   15   16 2
  29   15   47 1
  30   17   18 2
  31   17   20 am
  32   19   20 1
  33   19   21 ar
  34   19   29 ar
  35   20   48 1
  36   21   22 ar
  37   21   49 1
  38   22   23 ar
  39   22   50 1
  40   23   28 ar
  41   23   51 1
  42   24   25 am
  43   24   26 2
  44   24   27 2
  45   24   28 1
  46   25   30 1
  47   25   52 1
  48   28   29 ar
  49   29   53 1
  50   30   31 1
  51   30   54 1
  52   30   55 1
  53   31   32 1
  54   31   56 1
  55   31   57 1
  56   32   33 1
  57   32   34 1
  58   33   58 1
  59   33   59 1
  60   33   60 1
  61   34   61 1
  62   34   62 1
  63   34   63 1
  64   37   38 1
  65   37   39 1
  66   37   40 1

#	End of record

