#	Name: ASD01881058
#	Creating user name:	WinNT
#	Creation time:	15. 06. 2019 19:41

#	Modifying user name:	WinNT
#	Modification time:	15. 06. 2019 19:41

#	Program:	/corina/corina34_cracker 3.40 0067  02.08.2006

@<TRIPOS>MOLECULE
ASD01881058
  37   39    0    0    0
SMALL
NO_CHARGES


@<TRIPOS>ATOM
   1 O1            -0.0177     1.4528     0.0100 O.3     
   2 C2             0.0021    -0.0041     0.0020 C.3     
   3 C3             1.5020    -0.3567    -0.0142 C.3     
   4 N4             2.1700     0.9538    -0.0135 N.am    
   5 C5             1.2374     1.9159     0.0005 C.2     
   6 C6            -0.6652    -0.5565     1.2632 C.3     
   7 O7            -2.0581    -0.2381     1.2435 O.3     
   8 O8             1.5070     3.1008     0.0039 O.2     
   9 C9             3.5539     1.1619    -0.0256 C.ar    
  10 C10            4.0633     2.4537    -0.0236 C.ar    
  11 C11            5.4295     2.6558    -0.0356 C.ar    
  12 C12            6.2899     1.5733    -0.0501 C.ar    
  13 C13            5.7858     0.2857    -0.0527 C.ar    
  14 C14            4.4206     0.0769    -0.0340 C.ar    
  15 C15           -2.8029    -0.6601     2.3004 C.ar    
  16 C16           -4.1616    -0.3848     2.3448 C.ar    
  17 C17           -4.9187    -0.8133     3.4174 C.ar    
  18 C18           -4.3193    -1.5199     4.4517 C.ar    
  19 C19           -2.9590    -1.7950     4.4064 C.ar    
  20 C20           -2.2044    -1.3704     3.3305 C.ar    
  21 N21           -5.0856    -1.9540     5.5391 N.pl3   
  22 H22           -0.4904    -0.3880    -0.8914 H       
  23 H23            1.7715    -0.9243     0.8765 H       
  24 H24            1.7544    -0.9146    -0.9159 H       
  25 H25           -0.5402    -1.6388     1.2960 H       
  26 H26           -0.2029    -0.1105     2.1438 H       
  27 H27            3.3918     3.2996    -0.0129 H       
  28 H28            5.8263     3.6602    -0.0340 H       
  29 H29            7.3578     1.7339    -0.0598 H       
  30 H30            6.4603    -0.5577    -0.0647 H       
  31 H31            4.0275    -0.9290    -0.0360 H       
  32 H32           -4.6275     0.1651     1.5404 H       
  33 H33           -5.9766    -0.5986     3.4519 H       
  34 H34           -2.4920    -2.3445     5.2104 H       
  35 H35           -1.1464    -1.5846     3.2950 H       
  36 H36           -6.0358    -1.7614     5.5706 H       
  37 H37           -4.6666    -2.4476     6.2614 H       
@<TRIPOS>BOND
   1    1    2 1
   2    1    5 1
   3    2    3 1
   4    2    6 1
   5    2   22 1
   6    3    4 1
   7    3   23 1
   8    3   24 1
   9    4    5 am
  10    4    9 1
  11    5    8 2
  12    6    7 1
  13    6   25 1
  14    6   26 1
  15    7   15 1
  16    9   10 ar
  17    9   14 ar
  18   10   11 ar
  19   10   27 1
  20   11   12 ar
  21   11   28 1
  22   12   13 ar
  23   12   29 1
  24   13   14 ar
  25   13   30 1
  26   14   31 1
  27   15   16 ar
  28   15   20 ar
  29   16   17 ar
  30   16   32 1
  31   17   18 ar
  32   17   33 1
  33   18   19 ar
  34   18   21 1
  35   19   20 ar
  36   19   34 1
  37   20   35 1
  38   21   36 1
  39   21   37 1

#	End of record

