#	Name: ASD01410944
#	Creating user name:	WinNT
#	Creation time:	15. 06. 2019 19:19

#	Modifying user name:	WinNT
#	Modification time:	15. 06. 2019 19:19

#	Program:	/corina/corina34_cracker 3.40 0067  02.08.2006

@<TRIPOS>MOLECULE
ASD01410944
  84   87    0    0    0
SMALL
NO_CHARGES


@<TRIPOS>ATOM
   1 C1            -0.6055     2.4177    -0.4973 C.ar    
   2 C2            -1.5023     0.2084    -0.7979 C.ar    
   3 C3            -2.7238     0.6298    -0.2913 C.ar    
   4 C4            -2.8830     1.9595     0.1280 C.ar    
   5 C5            -1.8144     2.8522     0.0150 C.ar    
   6 O6             0.4367     3.2846    -0.6023 O.3     
   7 C7             0.8276     3.6630    -1.8451 C.ar    
   8 N8            -3.7856    -0.2677    -0.1887 N.am    
   9 C9            -4.0209    -0.9028     0.9765 C.2     
  10 C10           -3.2122    -0.5566     2.2001 C.3     
  11 O11           -4.8835    -1.7529     1.0404 O.2     
  12 C12           -4.0115    -0.9087     3.4562 C.3     
  13 C13           -1.0833    -0.9991     3.4308 C.3     
  14 C14           -1.8827    -1.3512     4.6869 C.3     
  15 C15           -3.1905    -0.5572     4.6985 C.3     
  16 C16           -1.0616    -0.9997     5.9292 C.3     
  17 N17            0.1290     3.2731    -2.8988 N.ar    
  18 C18           -4.6455    -0.5206    -1.3475 C.3     
  19 C19           -4.5426     0.6523    -2.3246 C.3     
  20 C20            1.9541     4.4609    -1.9987 C.ar    
  21 C21            2.3420     4.8404    -3.2721 C.ar    
  22 C22            1.5854     4.4061    -4.3515 C.ar    
  23 C23            0.4738     3.6188    -4.1244 C.ar    
  24 C24           -1.9044    -1.3506     2.1885 C.3     
  25 C25            1.9693     4.7947    -5.7561 C.3     
  26 C26           -4.1966    -1.8063    -2.0448 C.3     
  27 O27           -4.3887    -2.9168    -1.1663 O.3     
  28 C28           -3.9985    -4.1733    -1.7238 C.3     
  29 C29           -0.4507     1.0965    -0.8998 C.ar    
  30 N30            2.8840     3.7875    -6.3101 N.3     
  31 C31            3.0936     4.0012    -7.7494 C.3     
  32 O32           -5.0876     1.8262    -1.7188 O.3     
  33 C33           -5.0401     2.9859    -2.5523 C.3     
  34 C34            4.0966     2.9694    -8.2723 C.3     
  35 O35            3.6137     1.6543    -7.9848 O.3     
  36 C36            3.3990     1.4116    -6.5919 C.3     
  37 C37            2.3889     2.4275    -6.0520 C.3     
  38 C38            2.7432     4.9078    -0.7951 C.3     
  39 F39            3.8223     5.6950    -1.2110 F       
  40 F40            1.9186     5.6566     0.0514 F       
  41 F41            3.2212     3.7866    -0.1084 F       
  42 C42           -4.1764     2.4167     0.6669 C.2     
  43 O43           -5.1242     1.6569     0.6984 O.2     
  44 O44           -4.3080     3.6772     1.1247 O.3     
  45 H45           -1.3770    -0.8144    -1.1214 H       
  46 H46           -1.9320     3.8793     0.3273 H       
  47 H47           -2.9894     0.5104     2.1984 H       
  48 H48           -4.9432    -0.3430     3.4645 H       
  49 H49           -4.2343    -1.9757     3.4579 H       
  50 H50           -0.8606     0.0679     3.4291 H       
  51 H51           -0.1516    -1.5648     3.4225 H       
  52 H52           -2.1054    -2.4182     4.6886 H       
  53 H53           -2.9677     0.5098     4.6968 H       
  54 H54           -3.7599    -0.8081     5.5934 H       
  55 H55           -0.8389     0.0673     5.9275 H       
  56 H56           -1.6311    -1.2506     6.8240 H       
  57 H57           -0.1299    -1.5654     5.9209 H       
  58 H58           -5.6785    -0.6284    -1.0167 H       
  59 H59           -3.4962     0.8253    -2.5756 H       
  60 H60           -5.1002     0.4193    -3.2318 H       
  61 H61            3.2133     5.4607    -3.4222 H       
  62 H62           -0.1181     3.2779    -4.9610 H       
  63 H63           -2.1271    -2.4176     2.1902 H       
  64 H64           -1.3349    -1.0997     1.2936 H       
  65 H65            1.0738     4.8518    -6.3749 H       
  66 H66            2.4638     5.7660    -5.7421 H       
  67 H67           -4.7855    -1.9532    -2.9503 H       
  68 H68           -3.1413    -1.7283    -2.3064 H       
  69 H69           -4.5833    -4.3693    -2.6226 H       
  70 H70           -2.9392    -4.1444    -1.9787 H       
  71 H71           -4.1755    -4.9647    -0.9954 H       
  72 H72            0.4975     0.7630    -1.2948 H       
  73 H73            2.1461     3.8871    -8.2761 H       
  74 H74            3.4843     5.0051    -7.9153 H       
  75 H75           -5.4722     3.8335    -2.0205 H       
  76 H76           -4.0039     3.2074    -2.8080 H       
  77 H77           -5.6080     2.8014    -3.4642 H       
  78 H78            4.2118     3.0874    -9.3497 H       
  79 H79            5.0597     3.1183    -7.7841 H       
  80 H80            3.0097     0.4028    -6.4540 H       
  81 H81            4.3419     1.5151    -6.0548 H       
  82 H82            2.2653     2.2828    -4.9787 H       
  83 H83            1.4302     2.2883    -6.5515 H       
  84 H84           -5.1753     3.9311     1.4686 H       
@<TRIPOS>BOND
   1    1   29 ar
   2    1    6 1
   3    1    5 ar
   4    2    3 ar
   5    2   29 ar
   6    2   45 1
   7    3    4 ar
   8    3    8 1
   9    4    5 ar
  10    4   42 1
  11    5   46 1
  12    6    7 1
  13    7   20 ar
  14    7   17 ar
  15    8    9 am
  16    8   18 1
  17    9   11 2
  18    9   10 1
  19   10   12 1
  20   10   24 1
  21   10   47 1
  22   12   15 1
  23   12   48 1
  24   12   49 1
  25   13   14 1
  26   13   24 1
  27   13   50 1
  28   13   51 1
  29   14   15 1
  30   14   16 1
  31   14   52 1
  32   15   53 1
  33   15   54 1
  34   16   55 1
  35   16   56 1
  36   16   57 1
  37   17   23 ar
  38   18   19 1
  39   18   26 1
  40   18   58 1
  41   19   32 1
  42   19   59 1
  43   19   60 1
  44   20   21 ar
  45   20   38 1
  46   21   22 ar
  47   21   61 1
  48   22   23 ar
  49   22   25 1
  50   23   62 1
  51   24   63 1
  52   24   64 1
  53   25   30 1
  54   25   65 1
  55   25   66 1
  56   26   27 1
  57   26   67 1
  58   26   68 1
  59   27   28 1
  60   28   69 1
  61   28   70 1
  62   28   71 1
  63   29   72 1
  64   30   31 1
  65   30   37 1
  66   31   34 1
  67   31   73 1
  68   31   74 1
  69   32   33 1
  70   33   75 1
  71   33   76 1
  72   33   77 1
  73   34   35 1
  74   34   78 1
  75   34   79 1
  76   35   36 1
  77   36   37 1
  78   36   80 1
  79   36   81 1
  80   37   82 1
  81   37   83 1
  82   38   39 1
  83   38   40 1
  84   38   41 1
  85   42   43 2
  86   42   44 1
  87   44   84 1

#	End of record

