#	Name: ASD01880873
#	Creating user name:	WinNT
#	Creation time:	15. 06. 2019 19:41

#	Modifying user name:	WinNT
#	Modification time:	15. 06. 2019 19:41

#	Program:	/corina/corina34_cracker 3.40 0067  02.08.2006

@<TRIPOS>MOLECULE
ASD01880873
  42   44    0    0    0
SMALL
NO_CHARGES


@<TRIPOS>ATOM
   1 N1            -0.0159     1.3188     0.0093 N.ar    
   2 C2             0.0021    -0.0041     0.0020 C.ar    
   3 N3             1.1381    -0.6825    -0.0125 N.ar    
   4 C4             2.3025    -0.0539    -0.0202 C.ar    
   5 C5             2.3227     1.3310    -0.0130 C.ar    
   6 C6             1.1130     2.0110     0.0022 C.ar    
   7 C7             3.6289     2.0826    -0.0209 C.3     
   8 O8             4.7136     1.1524    -0.0358 O.3     
   9 C9             5.9684     1.6692    -0.0446 C.ar    
  10 C10            7.0701     0.8193    -0.0592 C.ar    
  11 C11            8.3388     1.3434    -0.0685 C.ar    
  12 C12            8.5324     2.7288    -0.0633 C.ar    
  13 C13            7.4225     3.5779    -0.0490 C.ar    
  14 C14            6.1518     3.0468    -0.0447 C.ar    
  15 C15            9.7130     0.7216    -0.0846 C.3     
  16 N16           10.6671     1.8363    -0.0879 N.am    
  17 C17            9.9818     2.9924    -0.0756 C.2     
  18 O18           10.4863     4.0987    -0.0751 O.2     
  19 C19            7.6157     5.0724    -0.0427 C.3     
  20 Cl20           1.0802     3.7467     0.0113 Cl      
  21 O21           -1.1714    -0.6807     0.0100 O.3     
  22 C22           -1.0975    -2.1077     0.0017 C.3     
  23 C23           12.6215     1.6729    -1.5491 C.3     
  24 C24           12.1266     1.7100    -0.1018 C.3     
  25 H25            3.2259    -0.6140    -0.0317 H       
  26 H26            3.6794     2.7139    -0.9080 H       
  27 H27            3.6958     2.7044     0.8718 H       
  28 H28            6.9272    -0.2512    -0.0630 H       
  29 H29            5.2945     3.7035    -0.0340 H       
  30 H30            9.8570     0.1078     0.8046 H       
  31 H31            9.8402     0.1169    -0.9825 H       
  32 H32            7.6533     5.4383    -1.0688 H       
  33 H33            6.7842     5.5441     0.4810 H       
  34 H34            8.5494     5.3159     0.4643 H       
  35 H35           -0.5567    -2.4488     0.8845 H       
  36 H36           -2.1049    -2.5238     0.0094 H       
  37 H37           -0.5744    -2.4392    -0.8954 H       
  38 H38           12.1781     0.8201    -2.0630 H       
  39 H39           12.3317     2.5934    -2.0559 H       
  40 H40           13.7074     1.5789    -1.5595 H       
  41 H41           12.5701     2.5628     0.4121 H       
  42 H42           12.4165     0.7895     0.4049 H       
@<TRIPOS>BOND
   1    1    2 ar
   2    1    6 ar
   3    2    3 ar
   4    2   21 1
   5    3    4 ar
   6    4    5 ar
   7    4   25 1
   8    5    6 ar
   9    5    7 1
  10    6   20 1
  11    7    8 1
  12    7   26 1
  13    7   27 1
  14    8    9 1
  15    9   10 ar
  16    9   14 ar
  17   10   11 ar
  18   10   28 1
  19   11   12 ar
  20   11   15 1
  21   12   13 ar
  22   12   17 1
  23   13   14 ar
  24   13   19 1
  25   14   29 1
  26   15   16 1
  27   15   30 1
  28   15   31 1
  29   16   17 am
  30   16   24 1
  31   17   18 2
  32   19   32 1
  33   19   33 1
  34   19   34 1
  35   21   22 1
  36   22   35 1
  37   22   36 1
  38   22   37 1
  39   23   24 1
  40   23   38 1
  41   23   39 1
  42   23   40 1
  43   24   41 1
  44   24   42 1

#	End of record

