#	Name: ASD03091953
#	Creating user name:	WinNT
#	Creation time:	15. 06. 2019 20:31

#	Modifying user name:	WinNT
#	Modification time:	15. 06. 2019 20:31

#	Program:	/corina/corina34_cracker 3.40 0067  02.08.2006

@<TRIPOS>MOLECULE
ASD03091953
  55   59    0    0    0
SMALL
NO_CHARGES


@<TRIPOS>ATOM
   1 C1            -0.0170     1.3990     0.0097 C.ar    
   2 C2            -1.2302     2.0682     0.0306 C.ar    
   3 C3            -2.4113     1.3476     0.0434 C.ar    
   4 C4            -2.3921    -0.0379     0.0355 C.ar    
   5 C5            -1.1921    -0.7189     0.0148 C.ar    
   6 C6             0.0021    -0.0041     0.0020 C.ar    
   7 O7             1.1634     2.0662     0.0020 O.3     
   8 C8             2.2625     1.4579     0.6803 C.3     
   9 N9             2.4083     0.0563     0.2863 N.am    
  10 C10            1.3145    -0.6822    -0.0142 C.2     
  11 C11           -3.6890    -0.8053     0.0500 C.3     
  12 C12           -4.2048    -0.9467    -1.3589 C.ar    
  13 C13           -5.0424     0.0123    -1.8953 C.ar    
  14 C14           -3.8390    -2.0384    -2.1333 C.ar    
  15 C15           -4.3356    -2.1295    -3.4225 C.ar    
  16 C16           -5.1780    -1.1310    -3.8943 C.ar    
  17 N17           -5.4998    -0.1020    -3.1268 N.ar    
  18 O18            1.4088    -1.8632    -0.2876 O.2     
  19 C19            3.7407    -0.5489     0.2168 C.3     
  20 C20            3.8136    -1.7373     1.1792 C.3     
  21 N21           -5.6861    -1.2106    -5.1945 N.pl3   
  22 O22            5.0944    -2.3611     1.0674 O.3     
  23 C23            4.0061    -1.0400    -1.2096 C.3     
  24 C24            5.3682    -1.7395    -1.2518 C.3     
  25 C25            5.3783    -2.8819    -0.2327 C.3     
  26 O26            4.0127     0.0736    -2.1051 O.3     
  27 N27           -5.4351    -2.2341    -6.1176 N.2     
  28 C28           -6.0826    -1.9591    -7.2205 C.2     
  29 C29           -6.7684    -0.7526    -7.0401 C.2     
  30 C30           -6.5158    -0.3123    -5.7861 C.2     
  31 C31           -3.7303     2.0760     0.0668 C.3     
  32 F32           -1.2596     3.4188     0.0388 F       
  33 H33           -1.1796    -1.7988     0.0090 H       
  34 H34            3.1777     1.9963     0.4343 H       
  35 H35            2.0941     1.5120     1.7559 H       
  36 H36           -3.5212    -1.7943     0.4764 H       
  37 H37           -4.4217    -0.2691     0.6531 H       
  38 H38           -5.3265     0.8663    -1.2982 H       
  39 H39           -3.1817    -2.7995    -1.7395 H       
  40 H40           -4.0711    -2.9656    -4.0530 H       
  41 H41            4.4917     0.1912     0.4930 H       
  42 H42            3.6678    -1.3870     2.2011 H       
  43 H43            3.0352    -2.4575     0.9271 H       
  44 H44            3.2264    -1.7422    -1.5045 H       
  45 H45            5.5409    -2.1407    -2.2505 H       
  46 H46            6.1528    -1.0242    -1.0049 H       
  47 H47            6.3597    -3.3561    -0.2280 H       
  48 H48            4.6204    -3.6170    -0.5033 H       
  49 H49            4.1755    -0.1648    -3.0280 H       
  50 H50           -6.0873    -2.5608    -8.1174 H       
  51 H51           -7.3929    -0.2615    -7.7718 H       
  52 H52           -6.9019     0.5910    -5.3374 H       
  53 H53           -4.0632     2.2577    -0.9551 H       
  54 H54           -4.4712     1.4696     0.5879 H       
  55 H55           -3.6107     3.0277     0.5846 H       
@<TRIPOS>BOND
   1    1    6 ar
   2    1    7 1
   3    1    2 ar
   4    2    3 ar
   5    2   32 1
   6    3    4 ar
   7    3   31 1
   8    4    5 ar
   9    4   11 1
  10    5    6 ar
  11    5   33 1
  12    6   10 1
  13    7    8 1
  14    8    9 1
  15    8   34 1
  16    8   35 1
  17    9   10 am
  18    9   19 1
  19   10   18 2
  20   11   12 1
  21   11   36 1
  22   11   37 1
  23   12   14 ar
  24   12   13 ar
  25   13   17 ar
  26   13   38 1
  27   14   15 ar
  28   14   39 1
  29   15   16 ar
  30   15   40 1
  31   16   17 ar
  32   16   21 1
  33   19   23 1
  34   19   20 1
  35   19   41 1
  36   20   22 1
  37   20   42 1
  38   20   43 1
  39   21   30 1
  40   21   27 1
  41   22   25 1
  42   23   24 1
  43   23   26 1
  44   23   44 1
  45   24   25 1
  46   24   45 1
  47   24   46 1
  48   25   47 1
  49   25   48 1
  50   26   49 1
  51   27   28 2
  52   28   29 1
  53   28   50 1
  54   29   30 2
  55   29   51 1
  56   30   52 1
  57   31   53 1
  58   31   54 1
  59   31   55 1

#	End of record

