#	Name: ASD01914944
#	Creating user name:	WinNT
#	Creation time:	15. 06. 2019 20:04

#	Modifying user name:	WinNT
#	Modification time:	15. 06. 2019 20:04

#	Program:	/corina/corina34_cracker 3.40 0067  02.08.2006

@<TRIPOS>MOLECULE
ASD01914944
  61   66    0    0    0
SMALL
NO_CHARGES


@<TRIPOS>ATOM
   1 C1             0.0005     1.3363    -0.0245 C.2     
   2 N2             0.0094     0.0641     0.3144 N.2     
   3 C3             1.3151     1.7182    -0.3405 C.2     
   4 C4             2.1164     0.6262    -0.1786 C.2     
   5 N5             1.3252    -0.4079     0.2267 N.pl3   
   6 C6            -1.1950     2.2151    -0.0710 C.ar    
   7 C7            -2.4488     1.7079     0.2630 C.ar    
   8 C8            -3.5571     2.5294     0.2180 C.ar    
   9 C9            -3.4245     3.8538    -0.1583 C.ar    
  10 C10           -2.1820     4.3625    -0.4909 C.ar    
  11 C11           -1.0662     3.5514    -0.4433 C.ar    
  12 C12            3.5783     0.5732    -0.4026 C.ar    
  13 C13            1.7726    -1.7719     0.5194 C.3     
  14 C14            2.0469    -1.9048     1.9952 C.2     
  15 N15            2.4726    -3.0805     2.4983 N.am    
  16 O16            1.8847    -0.9539     2.7302 O.2     
  17 C17            2.7443    -3.2256     3.9349 C.3     
  18 C18            4.1642    -3.7715     4.1155 C.3     
  19 C19            4.3145    -5.0662     3.3136 C.3     
  20 C20            4.0940    -4.7761     1.8272 C.3     
  21 C21            2.6679    -4.2431     1.6215 C.3     
  22 C22            4.3481    -0.4058     0.2260 C.ar    
  23 C23            5.7107    -0.4499     0.0132 C.ar    
  24 C24            6.3136     0.4740    -0.8215 C.ar    
  25 C25            5.5557     1.4475    -1.4474 C.ar    
  26 C26            4.1914     1.4984    -1.2476 C.ar    
  27 C27            5.6996    -5.6243     3.5161 C.2     
  28 C28            6.0327    -6.9353     4.0807 C.ar    
  29 N29            6.8162    -5.0350     3.2176 N.2     
  30 O30            7.9035    -5.8734     3.5535 O.3     
  31 C31            7.4348    -7.0244     4.0762 C.ar    
  32 C32            8.0476    -8.1721     4.5636 C.ar    
  33 C33            7.2767    -9.2084     5.0451 C.ar    
  34 C34            5.8923    -9.1167     5.0480 C.ar    
  35 C35            5.2701    -7.9977     4.5703 C.ar    
  36 H36            1.6343     2.7008    -0.6552 H       
  37 H37           -2.5535     0.6738     0.5562 H       
  38 H38           -4.5295     2.1373     0.4767 H       
  39 H39           -4.2944     4.4930    -0.1929 H       
  40 H40           -2.0840     5.3973    -0.7840 H       
  41 H41           -0.0964     3.9496    -0.7029 H       
  42 H42            0.9958    -2.4792     0.2290 H       
  43 H43            2.6839    -1.9832    -0.0401 H       
  44 H44            2.6615    -2.2541     4.4223 H       
  45 H45            2.0274    -3.9193     4.3741 H       
  46 H46            4.8849    -3.0362     3.7578 H       
  47 H47            4.3443    -3.9744     5.1712 H       
  48 H48            3.5770    -5.7926     3.6551 H       
  49 H49            4.8154    -4.0314     1.4910 H       
  50 H50            4.2242    -5.6941     1.2541 H       
  51 H51            1.9472    -5.0216     1.8719 H       
  52 H52            2.5369    -3.9417     0.5822 H       
  53 H53            3.8786    -1.1274     0.8781 H       
  54 H54            6.3078    -1.2071     0.4995 H       
  55 H55            7.3805     0.4353    -0.9850 H       
  56 H56            6.0323     2.1665    -2.0974 H       
  57 H57            3.6007     2.2586    -1.7370 H       
  58 H58            9.1246    -8.2522     4.5648 H       
  59 H59            7.7547   -10.1000     5.4232 H       
  60 H60            5.3018    -9.9370     5.4285 H       
  61 H61            4.1920    -7.9332     4.5759 H       
@<TRIPOS>BOND
   1    1    2 2
   2    1    3 1
   3    1    6 1
   4    2    5 1
   5    3    4 2
   6    3   36 1
   7    4    5 1
   8    4   12 1
   9    5   13 1
  10    6    7 ar
  11    6   11 ar
  12    7    8 ar
  13    7   37 1
  14    8    9 ar
  15    8   38 1
  16    9   10 ar
  17    9   39 1
  18   10   11 ar
  19   10   40 1
  20   11   41 1
  21   12   22 ar
  22   12   26 ar
  23   13   14 1
  24   13   42 1
  25   13   43 1
  26   14   15 am
  27   14   16 2
  28   15   17 1
  29   15   21 1
  30   17   18 1
  31   17   44 1
  32   17   45 1
  33   18   19 1
  34   18   46 1
  35   18   47 1
  36   19   20 1
  37   19   27 1
  38   19   48 1
  39   20   21 1
  40   20   49 1
  41   20   50 1
  42   21   51 1
  43   21   52 1
  44   22   23 ar
  45   22   53 1
  46   23   24 ar
  47   23   54 1
  48   24   25 ar
  49   24   55 1
  50   25   26 ar
  51   25   56 1
  52   26   57 1
  53   27   28 1
  54   27   29 2
  55   28   31 ar
  56   28   35 ar
  57   29   30 1
  58   30   31 1
  59   31   32 ar
  60   32   33 ar
  61   32   58 1
  62   33   34 ar
  63   33   59 1
  64   34   35 ar
  65   34   60 1
  66   35   61 1

#	End of record

