#	Name: ASD01911876
#	Creating user name:	WinNT
#	Creation time:	15. 06. 2019 19:58

#	Modifying user name:	WinNT
#	Modification time:	15. 06. 2019 19:58

#	Program:	/corina/corina34_cracker 3.40 0067  02.08.2006

@<TRIPOS>MOLECULE
ASD01911876
  41   43    0    0    0
SMALL
NO_CHARGES


@<TRIPOS>ATOM
   1 C1            -0.7965     1.4659    -0.5684 C.ar    
   2 C2            -0.8759     0.0892    -0.7677 C.ar    
   3 C3            -0.7006    -0.4173    -2.0492 C.ar    
   4 N4            -0.4620     0.3895    -3.0638 N.ar    
   5 C5            -0.3808     1.6963    -2.9083 C.ar    
   6 C6            -0.5444     2.2755    -1.6634 C.ar    
   7 N7            -1.1279    -0.7693     0.3058 N.pl3   
   8 C8            -1.2217    -2.1467     0.0916 C.ar    
   9 C9            -0.0936    -2.8728    -0.2722 C.ar    
  10 C10           -0.1858    -4.2345    -0.4846 C.ar    
  11 C11           -1.3989    -4.8794    -0.3364 C.ar    
  12 C12           -2.5303    -4.1597     0.0270 C.ar    
  13 C13           -2.4401    -2.7925     0.2473 C.ar    
  14 N14           -3.7576    -4.8133     0.1764 N.am    
  15 C15           -4.9036    -4.1733    -0.1299 C.2     
  16 C16           -6.2053    -4.8265     0.1233 C.ar    
  17 O17           -4.8667    -3.0590    -0.6144 O.2     
  18 C18           -6.2495    -6.1068     0.6798 C.ar    
  19 C19           -7.4646    -6.7188     0.9166 C.ar    
  20 C20           -8.6433    -6.0708     0.6060 C.ar    
  21 C21           -8.6138    -4.7893     0.0490 C.ar    
  22 C22           -7.3912    -4.1640    -0.1876 C.ar    
  23 C23           -9.8373    -4.1185    -0.2732 C.1     
  24 C24           -1.2936    -0.2250     1.6558 C.3     
  25 N25          -10.8079    -3.5864    -0.5287 N.1     
  26 H26           -0.9325     1.8914     0.4148 H       
  27 H27           -0.7600    -1.4827    -2.2157 H       
  28 H28           -0.1834     2.3232    -3.7653 H       
  29 H29           -0.4761     3.3469    -1.5462 H       
  30 H30            0.8559    -2.3716    -0.3893 H       
  31 H31            0.6921    -4.7963    -0.7676 H       
  32 H32           -1.4676    -5.9442    -0.5036 H       
  33 H33           -3.3181    -2.2308     0.5302 H       
  34 H34           -3.7842    -5.7272     0.5004 H       
  35 H35           -5.3312    -6.6195     0.9253 H       
  36 H36           -7.4929    -7.7092     1.3465 H       
  37 H37           -9.5901    -6.5553     0.7934 H       
  38 H38           -7.3626    -3.1738    -0.6177 H       
  39 H39           -2.3451     0.0040     1.8287 H       
  40 H40           -0.9566    -0.9593     2.3875 H       
  41 H41           -0.7023     0.6852     1.7556 H       
@<TRIPOS>BOND
   1    1    2 ar
   2    1    6 ar
   3    1   26 1
   4    2    3 ar
   5    2    7 1
   6    3    4 ar
   7    3   27 1
   8    4    5 ar
   9    5    6 ar
  10    5   28 1
  11    6   29 1
  12    7    8 1
  13    7   24 1
  14    8    9 ar
  15    8   13 ar
  16    9   10 ar
  17    9   30 1
  18   10   11 ar
  19   10   31 1
  20   11   12 ar
  21   11   32 1
  22   12   13 ar
  23   12   14 1
  24   13   33 1
  25   14   15 am
  26   14   34 1
  27   15   16 1
  28   15   17 2
  29   16   18 ar
  30   16   22 ar
  31   18   19 ar
  32   18   35 1
  33   19   20 ar
  34   19   36 1
  35   20   21 ar
  36   20   37 1
  37   21   22 ar
  38   21   23 1
  39   22   38 1
  40   23   25 3
  41   24   39 1
  42   24   40 1
  43   24   41 1

#	End of record

