#	Name: ASD01150694
#	Creating user name:	WinNT
#	Creation time:	15. 06. 2019 19:04

#	Modifying user name:	WinNT
#	Modification time:	15. 06. 2019 19:04

#	Program:	/corina/corina34_cracker 3.40 0067  02.08.2006

@<TRIPOS>MOLECULE
ASD01150694
  32   34    0    0    0
SMALL
NO_CHARGES


@<TRIPOS>ATOM
   1 C1             0.0029     1.4622     0.0141 C.2     
   2 C2            -0.4261     1.0429    -1.3684 C.3     
   3 F3            -1.5661     0.2370    -1.2785 F       
   4 F4            -0.7172     2.1791    -2.1310 F       
   5 F5             0.6067     0.3235    -1.9790 F       
   6 C6             3.5387     3.7062     0.5385 C.ar    
   7 C7             2.3466     4.4119     0.3401 C.ar    
   8 C8             1.1459     3.6764     0.1616 C.ar    
   9 C9             1.2129     2.2699     0.1925 C.ar    
  10 C10            2.4562     1.6554     0.3973 C.ar    
  11 N11            3.5417     2.3689     0.5579 N.ar    
  12 C12            2.5549     5.8483     0.3527 C.2     
  13 C13            3.8054     6.2251     0.5450 C.2     
  14 S14            4.8674     4.8443     0.7392 S.3     
  15 C15            2.5441     0.1514     0.4334 C.3     
  16 C16           -0.1425     4.3691    -0.0514 C.ar    
  17 C17           -0.3456     5.1327    -1.2026 C.ar    
  18 C18           -1.5494     5.7763    -1.3964 C.ar    
  19 C19           -2.5571     5.6664    -0.4509 C.ar    
  20 C20           -2.3609     4.9096     0.6939 C.ar    
  21 C21           -1.1629     4.2575     0.8952 C.ar    
  22 F22           -3.7346     6.2995    -0.6455 F       
  23 Cl23           4.3305     7.8787     0.6046 Cl      
  24 O24           -0.6560     1.1354     0.9790 O.2     
  25 H25            1.7493     6.5543     0.2150 H       
  26 H26            2.6371    -0.2316    -0.5828 H       
  27 H27            3.4156    -0.1477     1.0156 H       
  28 H28            1.6430    -0.2542     0.8936 H       
  29 H29            0.4390     5.2193    -1.9397 H       
  30 H30           -1.7074     6.3675    -2.2863 H       
  31 H31           -3.1492     4.8276     1.4275 H       
  32 H32           -1.0126     3.6645     1.7853 H       
@<TRIPOS>BOND
   1    1    2 1
   2    1    9 1
   3    1   24 2
   4    2    3 1
   5    2    4 1
   6    2    5 1
   7    6    7 ar
   8    6   11 ar
   9    6   14 1
  10    7    8 ar
  11    7   12 1
  12    8    9 ar
  13    8   16 1
  14    9   10 ar
  15   10   11 ar
  16   10   15 1
  17   12   13 2
  18   12   25 1
  19   13   14 1
  20   13   23 1
  21   15   26 1
  22   15   27 1
  23   15   28 1
  24   16   17 ar
  25   16   21 ar
  26   17   18 ar
  27   17   29 1
  28   18   19 ar
  29   18   30 1
  30   19   20 ar
  31   19   22 1
  32   20   21 ar
  33   20   31 1
  34   21   32 1

#	End of record

