#	Name: ASD00170028
#	Creating user name:	WinNT
#	Creation time:	15. 06. 2019 18:31

#	Modifying user name:	WinNT
#	Modification time:	15. 06. 2019 18:31

#	Program:	/corina/corina34_cracker 3.40 0067  02.08.2006

@<TRIPOS>MOLECULE
ASD00170028
  32   33    0    0    0
SMALL
NO_CHARGES


@<TRIPOS>ATOM
   1 C1            -0.0167     1.3449     0.0215 C.2     
   2 C2             0.0012    -0.0038     0.0190 C.2     
   3 C3            -1.2620    -0.5804     0.0347 C.2     
   4 C4            -2.2931     0.3374     0.0497 C.2     
   5 S5            -1.6737     1.9270     0.0518 S.3     
   6 N6            -3.6304     0.0158     0.0668 N.pl3   
   7 C7             1.1711     2.1986     0.0072 C.2     
   8 C8             1.2741    -0.8102     0.0002 C.3     
   9 C9            -1.4806    -2.0317     0.0347 C.2     
  10 N10           -1.5966    -2.6958    -1.1323 N.am    
  11 O11           -1.5573    -2.6354     1.0885 O.2     
  12 N12            1.0371     3.5397     0.0112 N.am    
  13 C13            2.1688     4.3551     0.1103 C.ar    
  14 O14            2.2807     1.6977    -0.0082 O.2     
  15 C15            2.2120     5.5704    -0.5608 C.ar    
  16 C16            3.3310     6.3736    -0.4604 C.ar    
  17 C17            4.4077     5.9690     0.3072 C.ar    
  18 C18            4.3682     4.7594     0.9763 C.ar    
  19 C19            3.2499     3.9541     0.8847 C.ar    
  20 H20           -3.9056    -0.9144     0.0689 H       
  21 H21           -4.2983     0.7191     0.0767 H       
  22 H22            1.5949    -1.0067     1.0232 H       
  23 H23            1.0979    -1.7555    -0.5131 H       
  24 H24            2.0503    -0.2518    -0.5231 H       
  25 H25           -1.5354    -2.2145    -1.9723 H       
  26 H26           -1.7411    -3.6550    -1.1323 H       
  27 H27            0.1557     3.9393    -0.0548 H       
  28 H28            1.3715     5.8868    -1.1608 H       
  29 H29            3.3653     7.3185    -0.9823 H       
  30 H30            5.2816     6.5989     0.3841 H       
  31 H31            5.2109     4.4462     1.5747 H       
  32 H32            3.2195     3.0097     1.4077 H       
@<TRIPOS>BOND
   1    1    2 2
   2    1    7 1
   3    1    5 1
   4    2    3 1
   5    2    8 1
   6    3    4 2
   7    3    9 1
   8    4    5 1
   9    4    6 1
  10    6   20 1
  11    6   21 1
  12    7   12 am
  13    7   14 2
  14    8   22 1
  15    8   23 1
  16    8   24 1
  17    9   10 am
  18    9   11 2
  19   10   25 1
  20   10   26 1
  21   12   13 1
  22   12   27 1
  23   13   15 ar
  24   13   19 ar
  25   15   16 ar
  26   15   28 1
  27   16   17 ar
  28   16   29 1
  29   17   18 ar
  30   17   30 1
  31   18   19 ar
  32   18   31 1
  33   19   32 1

#	End of record

