#	Name: ASD03330982
#	Creating user name:	WinNT
#	Creation time:	15. 06. 2019 20:38

#	Modifying user name:	WinNT
#	Modification time:	15. 06. 2019 20:38

#	Program:	/corina/corina34_cracker 3.40 0067  02.08.2006

@<TRIPOS>MOLECULE
ASD03330982
  70   72    0    0    0
SMALL
NO_CHARGES


@<TRIPOS>ATOM
   1 N1             0.0712     1.1452    -0.7569 N.pl3   
   2 C2             0.0724    -0.1885    -0.4924 C.2     
   3 C3             1.2914    -1.0246    -0.2024 C.3     
   4 N4             2.1262    -0.3317     0.7914 N.3     
   5 C5             3.0804     0.5714     0.1452 C.3     
   6 C6             2.4851     1.1787    -1.1219 C.3     
   7 C7             1.2518     2.0136    -0.7669 C.3     
   8 C8            -1.2210     1.5133    -0.9950 C.2     
   9 N9            -1.9883     0.4565    -0.8655 N.2     
  10 C10           -1.2208    -0.6105    -0.5525 C.2     
  11 C11           -1.6979    -1.9849    -0.3186 C.2     
  12 O12           -0.9051    -2.8650    -0.0426 O.2     
  13 N13           -3.0126    -2.2668    -0.4107 N.am    
  14 C14            2.8172    -1.2932     1.6607 C.3     
  15 C15           -4.7921    -3.8419    -0.9019 C.2     
  16 C16           -3.4869    -3.6332    -0.1781 C.3     
  17 C17           -3.6946    -3.8527     1.3217 C.3     
  18 C18           -4.7887    -2.9108     1.8282 C.3     
  19 O19           -5.4255    -2.8864    -1.2977 O.2     
  20 C20           -4.1140    -5.3027     1.5717 C.3     
  21 C21           -2.3888    -3.5641     2.0650 C.3     
  22 N22           -5.2555    -5.0904    -1.1093 N.am    
  23 C23           -6.8470    -6.7900    -1.8577 C.3     
  24 C24           -6.5622    -5.2913    -1.7406 C.3     
  25 C25           -7.6475    -4.6311    -0.8879 C.3     
  26 C26           -6.5567    -4.6626    -3.1354 C.3     
  27 O27           -8.1215    -6.9859    -2.4735 O.3     
  28 C28           -1.6802     2.8760    -1.3409 C.ar    
  29 C29           -2.5796     3.0676    -2.3933 C.ar    
  30 C30           -3.0048     4.3439    -2.7105 C.ar    
  31 C31           -2.5420     5.4291    -1.9890 C.ar    
  32 C32           -1.6506     5.2454    -0.9456 C.ar    
  33 C33           -1.2221     3.9751    -0.6144 C.ar    
  34 F34           -3.0318     2.0080    -3.0990 F       
  35 Cl35          -1.0752     6.6149    -0.0472 Cl      
  36 H36            0.9836    -1.9930     0.1919 H       
  37 H37            1.8614    -1.1684    -1.1203 H       
  38 H38            3.3411     1.3719     0.8376 H       
  39 H39            3.9813     0.0151    -0.1134 H       
  40 H40            3.2280     1.8157    -1.6021 H       
  41 H41            2.1975     0.3802    -1.8059 H       
  42 H42            1.1188     2.8010    -1.5088 H       
  43 H43            1.3849     2.4590     0.2190 H       
  44 H44           -3.6448    -1.5648    -0.6309 H       
  45 H45            3.4012    -1.9813     1.0495 H       
  46 H46            3.4808    -0.7576     2.3396 H       
  47 H47            2.0824    -1.8543     2.2382 H       
  48 H48           -2.7476    -4.3426    -0.5502 H       
  49 H49           -5.7190    -3.1164     1.2987 H       
  50 H50           -4.9367    -3.0671     2.8968 H       
  51 H51           -4.4899    -1.8777     1.6501 H       
  52 H52           -3.3251    -5.9731     1.2306 H       
  53 H53           -4.2830    -5.4534     2.6379 H       
  54 H54           -5.0327    -5.5147     1.0247 H       
  55 H55           -2.0900    -2.5311     1.8869 H       
  56 H56           -2.5368    -3.7204     3.1336 H       
  57 H57           -1.6093    -4.2351     1.7042 H       
  58 H58           -4.7239    -5.8560    -0.8405 H       
  59 H59           -6.0738    -7.2603    -2.4652 H       
  60 H60           -6.8509    -7.2378    -0.8640 H       
  61 H61           -7.4446    -3.5634    -0.8044 H       
  62 H62           -8.6197    -4.7805    -1.3576 H       
  63 H63           -7.6514    -5.0789     0.1059 H       
  64 H64           -5.7835    -5.1330    -3.7429 H       
  65 H65           -7.5289    -4.8121    -3.6052 H       
  66 H66           -6.3538    -3.5949    -3.0520 H       
  67 H67           -8.3682    -7.9148    -2.5802 H       
  68 H68           -3.6995     4.4939    -3.5237 H       
  69 H69           -2.8772     6.4244    -2.2407 H       
  70 H70           -0.5305     3.8333     0.2029 H       
@<TRIPOS>BOND
   1    1    2 1
   2    1    7 1
   3    1    8 1
   4    2    3 1
   5    2   10 2
   6    3    4 1
   7    3   36 1
   8    3   37 1
   9    4    5 1
  10    4   14 1
  11    5    6 1
  12    5   38 1
  13    5   39 1
  14    6    7 1
  15    6   40 1
  16    6   41 1
  17    7   42 1
  18    7   43 1
  19    8    9 2
  20    8   28 1
  21    9   10 1
  22   10   11 1
  23   11   12 2
  24   11   13 am
  25   13   16 1
  26   13   44 1
  27   14   45 1
  28   14   46 1
  29   14   47 1
  30   15   19 2
  31   15   22 am
  32   15   16 1
  33   16   17 1
  34   16   48 1
  35   17   18 1
  36   17   20 1
  37   17   21 1
  38   18   49 1
  39   18   50 1
  40   18   51 1
  41   20   52 1
  42   20   53 1
  43   20   54 1
  44   21   55 1
  45   21   56 1
  46   21   57 1
  47   22   24 1
  48   22   58 1
  49   23   24 1
  50   23   27 1
  51   23   59 1
  52   23   60 1
  53   24   25 1
  54   24   26 1
  55   25   61 1
  56   25   62 1
  57   25   63 1
  58   26   64 1
  59   26   65 1
  60   26   66 1
  61   27   67 1
  62   28   29 ar
  63   28   33 ar
  64   29   30 ar
  65   29   34 1
  66   30   31 ar
  67   30   68 1
  68   31   32 ar
  69   31   69 1
  70   32   33 ar
  71   32   35 1
  72   33   70 1

#	End of record

