#	Name: ASD04560089
#	Creating user name:	WinNT
#	Creation time:	15. 06. 2019 20:49

#	Modifying user name:	WinNT
#	Modification time:	15. 06. 2019 20:49

#	Program:	/corina/corina34_cracker 3.40 0067  02.08.2006

@<TRIPOS>MOLECULE
ASD04560089
  48   50    0    0    0
SMALL
NO_CHARGES


@<TRIPOS>ATOM
   1 C1            -0.5210     1.0669     0.5099 C.ar    
   2 C2            -0.3894    -0.2953     0.4291 C.ar    
   3 C3             0.8763    -0.8701     0.3385 C.ar    
   4 C4             2.0117    -0.0631     0.3297 C.ar    
   5 C5             1.8864     1.2997     0.4106 C.ar    
   6 C6             0.6171     1.8796     0.5012 C.ar    
   7 C7             0.4789     3.3450     0.5879 C.2     
   8 O8             1.4694     4.0507     0.5806 O.2     
   9 N9            -0.7450     3.9025     0.6751 N.am    
  10 C10           -0.8731     5.2830     0.8669 C.ar    
  11 C11           -1.9294     5.9709     0.2842 C.ar    
  12 C12           -0.0759     7.3280     1.8331 C.ar    
  13 C13            0.0526     5.9658     1.6448 C.ar    
  14 S14            1.0414    -2.6213     0.2355 S.3     
  15 C15           -2.0543     7.3330     0.4751 C.ar    
  16 C16           -1.1268     8.0129     1.2465 C.ar    
  17 F17           -1.2507     9.3454     1.4320 F       
  18 C18            2.8374    -2.8568     0.1385 C.3     
  19 C19            3.1466    -4.3287     0.0440 C.2     
  20 C20            4.5435    -4.7829    -0.0462 C.ar    
  21 O21            2.2444    -5.1389     0.0422 O.2     
  22 C22            5.5816    -3.8497    -0.1361 C.ar    
  23 C23            6.8877    -4.2831    -0.2198 C.ar    
  24 C24            7.1730    -5.6376    -0.2155 C.ar    
  25 C25            6.1515    -6.5670    -0.1273 C.ar    
  26 C26            4.8403    -6.1493    -0.0366 C.ar    
  27 C27            8.6035    -6.1026    -0.3078 C.3     
  28 C28            3.7294    -7.1630     0.0593 C.3     
  29 H29           -1.5027     1.5122     0.5756 H       
  30 H30           -1.2679    -0.9235     0.4362 H       
  31 H31            2.9917    -0.5115     0.2594 H       
  32 H32            2.7671     1.9248     0.4044 H       
  33 H33           -1.5371     3.3470     0.6050 H       
  34 H34           -2.6526     5.4411    -0.3181 H       
  35 H35            0.6439     7.8594     2.4380 H       
  36 H36            0.8724     5.4320     2.1025 H       
  37 H37           -2.8756     7.8683     0.0221 H       
  38 H38            3.2235    -2.3470    -0.7441 H       
  39 H39            3.3068    -2.4436     1.0313 H       
  40 H40            5.3606    -2.7926    -0.1403 H       
  41 H41            7.6904    -3.5639    -0.2893 H       
  42 H42            6.3820    -7.6221    -0.1252 H       
  43 H43            9.0205    -6.1963     0.6949 H       
  44 H44            8.6394    -7.0704    -0.8081 H       
  45 H45            9.1852    -5.3776    -0.8770 H       
  46 H46            3.4471    -7.2950     1.1038 H       
  47 H47            2.8675    -6.8124    -0.5085 H       
  48 H48            4.0700    -8.1149    -0.3481 H       
@<TRIPOS>BOND
   1    1    2 ar
   2    1    6 ar
   3    1   29 1
   4    2    3 ar
   5    2   30 1
   6    3    4 ar
   7    3   14 1
   8    4    5 ar
   9    4   31 1
  10    5    6 ar
  11    5   32 1
  12    6    7 1
  13    7    8 2
  14    7    9 am
  15    9   10 1
  16    9   33 1
  17   10   11 ar
  18   10   13 ar
  19   11   15 ar
  20   11   34 1
  21   12   13 ar
  22   12   16 ar
  23   12   35 1
  24   13   36 1
  25   14   18 1
  26   15   16 ar
  27   15   37 1
  28   16   17 1
  29   18   19 1
  30   18   38 1
  31   18   39 1
  32   19   20 1
  33   19   21 2
  34   20   22 ar
  35   20   26 ar
  36   22   23 ar
  37   22   40 1
  38   23   24 ar
  39   23   41 1
  40   24   25 ar
  41   24   27 1
  42   25   26 ar
  43   25   42 1
  44   26   28 1
  45   27   43 1
  46   27   44 1
  47   27   45 1
  48   28   46 1
  49   28   47 1
  50   28   48 1

#	End of record

