#	Name: ASD00390003
#	Creating user name:	WinNT
#	Creation time:	15. 06. 2019 18:35

#	Modifying user name:	WinNT
#	Modification time:	15. 06. 2019 18:35

#	Program:	/corina/corina34_cracker 3.40 0067  02.08.2006

@<TRIPOS>MOLECULE
ASD00390003
  43   44    0    0    0
SMALL
NO_CHARGES


@<TRIPOS>ATOM
   1 C1             0.3691     0.6145    -0.5610 C.ar    
   2 C2             0.2287    -0.7153    -0.1231 C.ar    
   3 C3            -1.0394    -1.2862     0.0927 C.ar    
   4 C4            -2.1679    -0.5648    -0.1169 C.ar    
   5 C5            -2.0561     0.8228    -0.5730 C.ar    
   6 C6            -0.7217     1.3888    -0.7833 C.ar    
   7 C7             1.3887    -1.4962     0.1048 C.2     
   8 C8             1.2719    -2.7614     0.5833 C.2     
   9 C9             2.4725    -3.5697     0.8192 C.ar    
  10 C10            3.7423    -3.0383     0.5514 C.ar    
  11 C11            4.8574    -3.7954     0.7733 C.ar    
  12 C12            4.7349    -5.0926     1.2646 C.ar    
  13 C13            3.4760    -5.6253     1.5324 C.ar    
  14 C14            2.3550    -4.8750     1.3190 C.ar    
  15 N15            5.8764    -5.8612     1.4890 N.am    
  16 C16            7.0212    -5.2686     1.8825 C.2     
  17 C17            8.2838    -6.0808     2.0133 C.3     
  18 O18            7.0352    -4.0817     2.1314 O.2     
  19 S19            0.7633    -5.5503     1.6582 S.o2    
  20 O20            0.5379    -5.3673     3.0493 O.2     
  21 O21           -0.1088    -5.0450     0.6565 O.2     
  22 O22            0.8536    -7.0526     1.4315 O.3     
  23 S23            1.9793     1.2830    -0.8160 S.o2    
  24 O24            2.4332     1.7317     0.4536 O.2     
  25 O25            2.6869     0.3355    -1.6040 O.2     
  26 O26            1.8194     2.5262    -1.6793 O.3     
  27 N27           -3.1395     1.5521    -0.7864 N.2     
  28 C28           -4.2723     1.0582    -0.5988 C.1     
  29 S29           -5.6803     0.4443    -0.3657 S.2     
  30 H30           -1.1143    -2.3099     0.4286 H       
  31 H31           -3.1384    -1.0082     0.0500 H       
  32 H32           -0.6079     2.4089    -1.1192 H       
  33 H33            2.3657    -1.0852    -0.1021 H       
  34 H34            0.2949    -3.1724     0.7902 H       
  35 H35            3.8384    -2.0325     0.1700 H       
  36 H36            5.8359    -3.3873     0.5671 H       
  37 H37            3.3865    -6.6320     1.9130 H       
  38 H38            5.8467    -6.8223     1.3618 H       
  39 H39            8.0774    -7.1182     1.7498 H       
  40 H40            9.0446    -5.6802     1.3433 H       
  41 H41            8.6427    -6.0316     3.0413 H       
  42 H42            0.0252    -7.5251     1.5917 H       
  43 H43            2.6520     2.9747    -1.8810 H       
@<TRIPOS>BOND
   1    1    2 ar
   2    1   23 1
   3    1    6 ar
   4    2    3 ar
   5    2    7 1
   6    3    4 ar
   7    3   30 1
   8    4    5 ar
   9    4   31 1
  10    5    6 ar
  11    5   27 1
  12    6   32 1
  13    7    8 2
  14    7   33 1
  15    8    9 1
  16    8   34 1
  17    9   10 ar
  18    9   14 ar
  19   10   11 ar
  20   10   35 1
  21   11   12 ar
  22   11   36 1
  23   12   13 ar
  24   12   15 1
  25   13   14 ar
  26   13   37 1
  27   14   19 1
  28   15   16 am
  29   15   38 1
  30   16   17 1
  31   16   18 2
  32   17   39 1
  33   17   40 1
  34   17   41 1
  35   19   20 2
  36   19   21 2
  37   19   22 1
  38   22   42 1
  39   23   24 2
  40   23   25 2
  41   23   26 1
  42   26   43 1
  43   27   28 2
  44   28   29 2

#	End of record

