#	Name: ASD08900001
#	Creating user name:	WinNT
#	Creation time:	15. 06. 2019 21:20

#	Modifying user name:	WinNT
#	Modification time:	15. 06. 2019 21:20

#	Program:	/corina/corina34_cracker 3.40 0067  02.08.2006

@<TRIPOS>MOLECULE
ASD08900001
  57   60    0    0    0
SMALL
NO_CHARGES


@<TRIPOS>ATOM
   1 N1             2.5869     0.7721     0.0390 N.ar    
   2 N2             1.0678     7.6302    -0.3143 N.pl3   
   3 C3             2.4054     7.3707    -0.2148 C.2     
   4 C4             1.2552     5.4306    -0.2251 C.2     
   5 C5             0.3666     6.4654    -0.3212 C.2     
   6 C6             2.5878     6.0391    -0.1562 C.2     
   7 C7             2.3394    -0.5348     0.1657 C.ar    
   8 C8             0.9378     3.9937    -0.1962 C.2     
   9 C9             1.6063     1.6600     0.0451 C.ar    
  10 C10            1.0048    -0.9914     0.3101 C.ar    
  11 C11            1.9277     3.0880    -0.0979 C.2     
  12 C12            1.8055    -3.2530     0.4325 C.ar    
  13 C13            0.7516    -2.3636     0.4435 C.ar    
  14 C14            3.3900    -1.4702     0.1583 C.ar    
  15 C15            0.5012     8.9096    -0.3917 C.ar    
  16 N16            1.5580    -4.6213     0.5641 N.pl3   
  17 C17            3.1204    -2.7965     0.2887 C.ar    
  18 C18           -0.0480    -0.0518     0.3174 C.ar    
  19 C19            0.2612     1.2671     0.1853 C.ar    
  20 C20            3.9709     1.2309    -0.1035 C.3     
  21 C21            3.4986     8.4073    -0.1774 C.3     
  22 C22           -1.1318     6.3370    -0.4173 C.3     
  23 C23            2.6768    -5.5608     0.6742 C.3     
  24 C24            0.1798    -5.1171     0.5921 C.3     
  25 C25            0.6141     9.7864     0.6789 C.ar    
  26 C26           -0.1694     9.3050    -1.5414 C.ar    
  27 C27            0.0546    11.0467     0.5996 C.ar    
  28 C28           -0.7268    10.5665    -1.6147 C.ar    
  29 C29           -0.6180    11.4353    -0.5444 C.ar    
  30 H30            3.5312     5.5198    -0.0750 H       
  31 H31           -0.0898     3.6664    -0.2540 H       
  32 H32            2.9584     3.4095    -0.1239 H       
  33 H33           -0.2612    -2.7216     0.5544 H       
  34 H34            4.4107    -1.1348     0.0486 H       
  35 H35            3.9330    -3.5079     0.2824 H       
  36 H36           -1.0739    -0.3713     0.4260 H       
  37 H37           -0.5226     2.0100     0.1875 H       
  38 H38            4.2620     1.1870    -1.1529 H       
  39 H39            4.0519     2.2576     0.2534 H       
  40 H40            4.6285     0.5894     0.4832 H       
  41 H41            3.8314     8.6213    -1.1930 H       
  42 H42            3.1179     9.3205     0.2802 H       
  43 H43            4.3372     8.0300     0.4079 H       
  44 H44           -1.4243     6.2708    -1.4652 H       
  45 H45           -1.4538     5.4375     0.1074 H       
  46 H46           -1.6011     7.2099     0.0365 H       
  47 H47            3.6129    -5.0056     0.7339 H       
  48 H48            2.5556    -6.1664     1.5723 H       
  49 H49            2.6942    -6.2092    -0.2017 H       
  50 H50           -0.1464    -5.3413    -0.4235 H       
  51 H51            0.1315    -6.0224     1.1973 H       
  52 H52           -0.4712    -4.3566     1.0233 H       
  53 H53            1.1387     9.4832     1.5729 H       
  54 H54           -0.2547     8.6269    -2.3776 H       
  55 H55            0.1421    11.7291     1.4320 H       
  56 H56           -1.2483    10.8748    -2.5089 H       
  57 H57           -1.0547    12.4213    -0.6041 H       
@<TRIPOS>BOND
   1    1    7 ar
   2    1    9 ar
   3    1   20 1
   4    2    5 1
   5    2    3 1
   6    2   15 1
   7    3    6 2
   8    3   21 1
   9    4    8 1
  10    4    5 2
  11    4    6 1
  12    5   22 1
  13    6   30 1
  14    7   10 ar
  15    7   14 ar
  16    8   11 2
  17    8   31 1
  18    9   11 1
  19    9   19 ar
  20   10   13 ar
  21   10   18 ar
  22   11   32 1
  23   12   17 ar
  24   12   13 ar
  25   12   16 1
  26   13   33 1
  27   14   17 ar
  28   14   34 1
  29   15   25 ar
  30   15   26 ar
  31   16   23 1
  32   16   24 1
  33   17   35 1
  34   18   19 ar
  35   18   36 1
  36   19   37 1
  37   20   38 1
  38   20   39 1
  39   20   40 1
  40   21   41 1
  41   21   42 1
  42   21   43 1
  43   22   44 1
  44   22   45 1
  45   22   46 1
  46   23   47 1
  47   23   48 1
  48   23   49 1
  49   24   50 1
  50   24   51 1
  51   24   52 1
  52   25   27 ar
  53   25   53 1
  54   26   28 ar
  55   26   54 1
  56   27   29 ar
  57   27   55 1
  58   28   29 ar
  59   28   56 1
  60   29   57 1

#	End of record

