#	Name: ASD08170069
#	Creating user name:	WinNT
#	Creation time:	15. 06. 2019 21:17

#	Modifying user name:	WinNT
#	Modification time:	15. 06. 2019 21:17

#	Program:	/corina/corina34_cracker 3.40 0067  02.08.2006

@<TRIPOS>MOLECULE
ASD08170069
  61   64    0    0    0
SMALL
NO_CHARGES


@<TRIPOS>ATOM
   1 N1            -0.0150     1.2583     0.0090 N.2     
   2 N2             0.0021    -0.0041     0.0020 N.2     
   3 C3             1.1271     1.8769     0.0014 C.2     
   4 S4             2.3826     0.7116    -0.0169 S.3     
   5 C5             1.1681    -0.5677    -0.0121 C.2     
   6 C6             1.4387    -2.0502    -0.0227 C.3     
   7 C7             1.5165    -2.5442    -1.4687 C.3     
   8 C8             2.1699    -6.2152    -3.4347 C.3     
   9 C9             2.2167    -6.5408    -4.9053 C.2     
  10 N10            3.2694    -6.5184    -5.6596 N.2     
  11 S11            0.8491    -7.0282    -5.9071 S.3     
  12 C12            1.9000    -7.1354    -7.2557 C.2     
  13 N13            3.1017    -6.8250    -6.8728 N.2     
  14 N14            1.5289    -7.4992    -8.5457 N.am    
  15 C15            2.4537    -7.5464    -9.5250 C.2     
  16 O16            3.6096    -7.2716    -9.2812 O.2     
  17 C17            2.0516    -7.9407   -10.9228 C.3     
  18 N18            1.3017     3.2566     0.0067 N.am    
  19 C19            0.2284     4.0717     0.0214 C.2     
  20 C20            0.4176     5.5667     0.0272 C.3     
  21 O21           -0.8897     3.6019     0.0299 O.2     
  22 C22            1.8986    -4.7206    -3.2516 C.3     
  23 C23            3.2662    -8.5197   -11.6738 C.3     
  24 S24            1.8422    -4.3286    -1.4814 S.3     
  25 C25           -0.8135     6.2483     0.6552 C.3     
  26 C26           -0.2377     7.0433     1.8523 C.3     
  27 C27            1.2571     7.1765     1.4647 C.3     
  28 O28            1.5556     5.9123     0.8345 O.3     
  29 O29            1.0503    -8.9707   -10.8712 O.3     
  30 C30            1.2746    -9.8339   -12.0066 C.3     
  31 C31            2.8189    -9.9462   -12.0760 C.3     
  32 C32            0.6183     6.0710    -1.4033 C.3     
  33 C33            1.5099    -6.7213   -11.6715 C.3     
  34 H34            2.3843    -2.2506     0.4811 H       
  35 H35            0.6334    -2.5702     0.4961 H       
  36 H36            0.5709    -2.3438    -1.9724 H       
  37 H37            2.3218    -2.0242    -1.9874 H       
  38 H38            1.3741    -6.7896    -2.9605 H       
  39 H39            3.1250    -6.4700    -2.9755 H       
  40 H40            0.6045    -7.7190    -8.7407 H       
  41 H41            2.1959     3.6323    -0.0001 H       
  42 H42            2.6943    -4.1461    -3.7258 H       
  43 H43            0.9434    -4.4658    -3.7108 H       
  44 H44            3.4858    -7.9246   -12.5603 H       
  45 H45            4.1353    -8.5632   -11.0174 H       
  46 H46           -1.2826     6.9232    -0.0607 H       
  47 H47           -1.5279     5.5014     1.0014 H       
  48 H48           -0.7081     8.0234     1.9307 H       
  49 H49           -0.3504     6.4838     2.7810 H       
  50 H50            1.3999     7.9983     0.7631 H       
  51 H51            1.8728     7.3174     2.3530 H       
  52 H52            0.8257   -10.8129   -11.8391 H       
  53 H53            0.8815    -9.3808   -12.9167 H       
  54 H54            3.1465   -10.1858   -13.0876 H       
  55 H55            3.1876   -10.6846   -11.3640 H       
  56 H56           -0.2625     5.8326    -1.9996 H       
  57 H57            0.7668     7.1508    -1.3904 H       
  58 H58            1.4934     5.5891    -1.8391 H       
  59 H59            2.2861    -5.9585   -11.7332 H       
  60 H60            1.2096    -7.0162   -12.6770 H       
  61 H61            0.6482    -6.3205   -11.1378 H       
@<TRIPOS>BOND
   1    1    2 1
   2    1    3 2
   3    2    5 2
   4    3    4 1
   5    3   18 1
   6    4    5 1
   7    5    6 1
   8    6    7 1
   9    6   34 1
  10    6   35 1
  11    7   24 1
  12    7   36 1
  13    7   37 1
  14    8    9 1
  15    8   22 1
  16    8   38 1
  17    8   39 1
  18    9   10 2
  19    9   11 1
  20   10   13 1
  21   11   12 1
  22   12   13 2
  23   12   14 1
  24   14   15 am
  25   14   40 1
  26   15   16 2
  27   15   17 1
  28   17   23 1
  29   17   29 1
  30   17   33 1
  31   18   19 am
  32   18   41 1
  33   19   20 1
  34   19   21 2
  35   20   25 1
  36   20   32 1
  37   20   28 1
  38   22   24 1
  39   22   42 1
  40   22   43 1
  41   23   31 1
  42   23   44 1
  43   23   45 1
  44   25   26 1
  45   25   46 1
  46   25   47 1
  47   26   27 1
  48   26   48 1
  49   26   49 1
  50   27   28 1
  51   27   50 1
  52   27   51 1
  53   29   30 1
  54   30   31 1
  55   30   52 1
  56   30   53 1
  57   31   54 1
  58   31   55 1
  59   32   56 1
  60   32   57 1
  61   32   58 1
  62   33   59 1
  63   33   60 1
  64   33   61 1

#	End of record

