#	Name: ASD02198639
#	Creating user name:	WinNT
#	Creation time:	15. 06. 2019 20:19

#	Modifying user name:	WinNT
#	Modification time:	15. 06. 2019 20:19

#	Program:	/corina/corina34_cracker 3.40 0067  02.08.2006

@<TRIPOS>MOLECULE
ASD02198639
  51   55    0    0    0
SMALL
NO_CHARGES


@<TRIPOS>ATOM
   1 C1             0.0067     1.5058     0.1350 C.2     
   2 C2             0.0729     0.1658    -0.0928 C.2     
   3 N3            -1.0542    -0.5637    -0.2622 N.pl3   
   4 N4            -2.2318    -0.0594    -0.2214 N.2     
   5 C5            -2.4385     1.2235    -0.0089 C.2     
   6 C6            -1.2793     2.1038     0.1933 C.2     
   7 C7            -0.9276    -1.9376    -0.4941 C.ar    
   8 C8            -1.5136    -2.5103    -1.6161 C.ar    
   9 C9            -1.3839    -3.8801    -1.8415 C.ar    
  10 C10           -0.6676    -4.6656    -0.9404 C.ar    
  11 C11           -0.0884    -4.0879     0.1722 C.ar    
  12 C12           -0.2107    -2.7296     0.3947 C.ar    
  13 C13           -3.8114     1.7673     0.0307 C.2     
  14 N14           -4.3730     2.4807     1.0520 N.pl3   
  15 N15           -5.6844     2.8003     0.6785 N.2     
  16 C16           -5.9149     2.3073    -0.5122 C.2     
  17 C17           -4.7646     1.6559    -0.9576 C.2     
  18 C18           -3.7492     2.8291     2.2567 C.ar    
  19 C19           -3.9178     4.1024     2.7847 C.ar    
  20 C20           -3.3017     4.4427     3.9731 C.ar    
  21 C21           -2.5177     3.5171     4.6370 C.ar    
  22 C22           -2.3478     2.2484     4.1137 C.ar    
  23 C23           -2.9654     1.9002     2.9285 C.ar    
  24 O24           -1.4164     3.3018     0.3946 O.2     
  25 O25            1.1345     2.2462     0.3068 O.3     
  26 C26            2.3823     1.5533     0.2368 C.3     
  27 F27           -2.2070    -1.7428    -2.4852 F       
  28 C28           -2.0071    -4.4998    -3.0370 C.ar    
  29 C29           -3.3447    -4.2580    -3.3438 C.ar    
  30 C30           -1.2607    -5.3306    -3.8766 C.ar    
  31 C31           -1.8884    -5.8846    -4.9793 C.ar    
  32 C32           -3.2214    -5.6006    -5.2123 C.ar    
  33 N33           -3.8990    -4.8075    -4.4047 N.ar    
  34 H34            1.0359    -0.3209    -0.1393 H       
  35 H35           -0.5657    -5.7269    -1.1121 H       
  36 H36            0.4661    -4.6994     0.8686 H       
  37 H37            0.2448    -2.2837     1.2665 H       
  38 H38           -6.8412     2.3942    -1.0607 H       
  39 H39           -4.6449     1.1500    -1.9042 H       
  40 H40           -4.5298     4.8258     2.2665 H       
  41 H41           -3.4322     5.4329     4.3841 H       
  42 H42           -2.0367     3.7858     5.5659 H       
  43 H43           -1.7345     1.5278     4.6344 H       
  44 H44           -2.8324     0.9092     2.5204 H       
  45 H45            3.1988     2.2589     0.3903 H       
  46 H46            2.4155     0.7856     1.0098 H       
  47 H47            2.4845     1.0870    -0.7431 H       
  48 H48           -3.9322    -3.6145    -2.7057 H       
  49 H49           -0.2204    -5.5352    -3.6708 H       
  50 H50           -1.3427    -6.5313    -5.6504 H       
  51 H51           -3.7143    -6.0310    -6.0715 H       
@<TRIPOS>BOND
   1    1    2 2
   2    1   25 1
   3    1    6 1
   4    2    3 1
   5    2   34 1
   6    3    4 1
   7    3    7 1
   8    4    5 2
   9    5    6 1
  10    5   13 1
  11    6   24 2
  12    7    8 ar
  13    7   12 ar
  14    8    9 ar
  15    8   27 1
  16    9   10 ar
  17    9   28 1
  18   10   11 ar
  19   10   35 1
  20   11   12 ar
  21   11   36 1
  22   12   37 1
  23   13   14 1
  24   13   17 2
  25   14   15 1
  26   14   18 1
  27   15   16 2
  28   16   17 1
  29   16   38 1
  30   17   39 1
  31   18   19 ar
  32   18   23 ar
  33   19   20 ar
  34   19   40 1
  35   20   21 ar
  36   20   41 1
  37   21   22 ar
  38   21   42 1
  39   22   23 ar
  40   22   43 1
  41   23   44 1
  42   25   26 1
  43   26   45 1
  44   26   46 1
  45   26   47 1
  46   28   29 ar
  47   28   30 ar
  48   29   33 ar
  49   29   48 1
  50   30   31 ar
  51   30   49 1
  52   31   32 ar
  53   31   50 1
  54   32   33 ar
  55   32   51 1

#	End of record

