#	Name: ASD01901338
#	Creating user name:	WinNT
#	Creation time:	15. 06. 2019 19:53

#	Modifying user name:	WinNT
#	Modification time:	15. 06. 2019 19:53

#	Program:	/corina/corina34_cracker 3.40 0067  02.08.2006

@<TRIPOS>MOLECULE
ASD01901338
  37   40    0    0    0
SMALL
NO_CHARGES


@<TRIPOS>ATOM
   1 C1            -0.0168     1.3911     0.0097 C.ar    
   2 N2             1.1102     2.0777     0.0026 N.ar    
   3 C3             2.2885     1.4806    -0.0119 C.ar    
   4 C4             2.3880     0.0986    -0.0203 C.ar    
   5 C5             1.2333    -0.6639    -0.0133 C.ar    
   6 C6             0.0021    -0.0041     0.0020 C.ar    
   7 C7            -1.2661    -0.7750     0.0105 C.2     
   8 N8            -2.8434    -2.0943    -1.1498 N.2     
   9 C9            -1.7229    -1.4146    -1.1624 C.2     
  10 C10           -2.0053    -0.8806     1.1553 C.2     
  11 N11           -3.1655    -1.5969     1.1285 N.pl3   
  12 C12           -3.5779    -2.1991    -0.0322 C.2     
  13 C13           -4.1022    -1.8796     2.0858 C.2     
  14 C14           -5.0530    -2.6373     1.4989 C.2     
  15 N15           -4.7219    -2.8204     0.2173 N.2     
  16 C16           -6.2830    -3.1845     2.1760 C.3     
  17 O17           -6.2934    -2.7780     3.5459 O.3     
  18 C18           -7.3431    -3.1907     4.3040 C.ar    
  19 C19           -8.3397    -3.9756     3.7423 C.ar    
  20 C20           -7.4170    -2.8325     5.6422 C.ar    
  21 C21           -8.4851    -3.2532     6.4107 C.ar    
  22 C22           -9.4797    -4.0311     5.8473 C.ar    
  23 C23           -9.4057    -4.3938     4.5151 C.ar    
  24 F24            3.4135     2.2287    -0.0190 F       
  25 F25           -1.1991     2.0447     0.0302 F       
  26 H26            3.3568    -0.3786    -0.0324 H       
  27 H27            1.2827    -1.7428    -0.0200 H       
  28 H28           -1.1471    -1.3432    -2.0732 H       
  29 H29           -1.6756    -0.4045     2.0669 H       
  30 H30           -4.0837    -1.5578     3.1166 H       
  31 H31           -7.1732    -2.8019     1.6767 H       
  32 H32           -6.2746    -4.2731     2.1200 H       
  33 H33           -8.2823    -4.2592     2.7018 H       
  34 H34           -6.6400    -2.2255     6.0829 H       
  35 H35           -8.5431    -2.9747     7.4525 H       
  36 H36          -10.3136    -4.3596     6.4499 H       
  37 H37          -10.1818    -5.0048     4.0783 H       
@<TRIPOS>BOND
   1    1    6 ar
   2    1    2 ar
   3    1   25 1
   4    2    3 ar
   5    3    4 ar
   6    3   24 1
   7    4    5 ar
   8    4   26 1
   9    5    6 ar
  10    5   27 1
  11    6    7 1
  12    7   10 2
  13    7    9 1
  14    8    9 2
  15    8   12 1
  16    9   28 1
  17   10   11 1
  18   10   29 1
  19   11   13 1
  20   11   12 1
  21   12   15 2
  22   13   14 2
  23   13   30 1
  24   14   15 1
  25   14   16 1
  26   16   17 1
  27   16   31 1
  28   16   32 1
  29   17   18 1
  30   18   20 ar
  31   18   19 ar
  32   19   23 ar
  33   19   33 1
  34   20   21 ar
  35   20   34 1
  36   21   22 ar
  37   21   35 1
  38   22   23 ar
  39   22   36 1
  40   23   37 1

#	End of record

