#	Name: ASD04590738
#	Creating user name:	WinNT
#	Creation time:	15. 06. 2019 20:51

#	Modifying user name:	WinNT
#	Modification time:	15. 06. 2019 20:51

#	Program:	/corina/corina34_cracker 3.40 0067  02.08.2006

@<TRIPOS>MOLECULE
ASD04590738
  36   37    0    0    0
SMALL
NO_CHARGES


@<TRIPOS>ATOM
   1 C1            -0.7651    -0.6765    -1.1072 C.2     
   2 C2             0.0021    -0.0041     0.0020 C.3     
   3 O3            -0.2049    -1.4515    -1.8456 O.2     
   4 O4            -2.0722    -0.4187    -1.2713 O.3     
   5 N5             1.3603    -0.5602     0.0650 N.3     
   6 C6             1.3333    -1.9706     0.4767 C.3     
   7 C7             2.7563    -2.5335     0.4532 C.3     
   8 N8             3.6084    -1.7419     1.3514 N.3     
   9 C9             3.6354    -0.3314     0.9397 C.3     
  10 C10            2.2124     0.2315     0.9633 C.3     
  11 C11            4.8946    -2.2685     1.4111 C.ar    
  12 C12            5.8634    -1.6623     2.2111 C.ar    
  13 C13            7.1289    -2.2252     2.2360 C.ar    
  14 C14            7.3550    -3.3578     1.4634 C.ar    
  15 N15            6.3791    -3.8647     0.7356 N.ar    
  16 N16            5.2032    -3.3507     0.7128 N.ar    
  17 Cl17           8.9220    -4.1049     1.4557 Cl      
  18 C18           -2.7472    -1.1021    -2.3601 C.3     
  19 C19           -4.2191    -0.6852    -2.3893 C.3     
  20 H20            0.0567     1.0672    -0.1916 H       
  21 H21           -0.5054    -0.1763     0.9511 H       
  22 H22            0.9286    -2.0472     1.4860 H       
  23 H23            0.7063    -2.5382    -0.2108 H       
  24 H24            2.7425    -3.5713     0.7860 H       
  25 H25            3.1510    -2.4820    -0.5616 H       
  26 H26            4.2624     0.2362     1.6272 H       
  27 H27            4.0401    -0.2549    -0.0695 H       
  28 H28            2.2262     1.2693     0.6304 H       
  29 H29            1.8177     0.1799     1.9780 H       
  30 H30            5.6340    -0.7815     2.7925 H       
  31 H31            7.9165    -1.7963     2.8378 H       
  32 H32           -2.2750    -0.8346    -3.3053 H       
  33 H33           -2.6777    -2.1797    -2.2113 H       
  34 H34           -4.7258    -1.1983    -3.2067 H       
  35 H35           -4.6913    -0.9527    -1.4441 H       
  36 H36           -4.2886     0.3924    -2.5381 H       
@<TRIPOS>BOND
   1    1    2 1
   2    1    3 2
   3    1    4 1
   4    2    5 1
   5    2   20 1
   6    2   21 1
   7    4   18 1
   8    5    6 1
   9    5   10 1
  10    6    7 1
  11    6   22 1
  12    6   23 1
  13    7    8 1
  14    7   24 1
  15    7   25 1
  16    8    9 1
  17    8   11 1
  18    9   10 1
  19    9   26 1
  20    9   27 1
  21   10   28 1
  22   10   29 1
  23   11   12 ar
  24   11   16 ar
  25   12   13 ar
  26   12   30 1
  27   13   14 ar
  28   13   31 1
  29   14   15 ar
  30   14   17 1
  31   15   16 ar
  32   18   19 1
  33   18   32 1
  34   18   33 1
  35   19   34 1
  36   19   35 1
  37   19   36 1

#	End of record

