#	Name: ASD01420032
#	Creating user name:	WinNT
#	Creation time:	15. 06. 2019 19:20

#	Modifying user name:	WinNT
#	Modification time:	15. 06. 2019 19:20

#	Program:	/corina/corina34_cracker 3.40 0067  02.08.2006

@<TRIPOS>MOLECULE
ASD01420032
  52   54    0    0    0
SMALL
NO_CHARGES


@<TRIPOS>ATOM
   1 C1            -0.0162     1.3411     0.0094 C.2     
   2 N2             0.0021    -0.0041     0.0020 N.am    
   3 C3             1.2636    -0.4708    -0.0125 C.2     
   4 C4             2.1903     0.6754    -0.0152 C.ar    
   5 C5             3.5758     0.8061    -0.0278 C.ar    
   6 C6             4.1465     2.0779    -0.0264 C.ar    
   7 C7             3.3469     3.2016    -0.0127 C.ar    
   8 C8             1.9641     3.0839     0.0003 C.ar    
   9 C9             1.3787     1.8294    -0.0013 C.ar    
  10 O10           -1.0115     2.0372     0.0181 O.2     
  11 O11            1.5856    -1.6423    -0.0213 O.2     
  12 O12            4.3653    -0.2963    -0.0408 O.3     
  13 C13            5.7782    -0.0823    -0.0531 C.3     
  14 C14            6.4983    -1.4322    -0.0667 C.3     
  15 N15            6.2004    -2.1334    -1.3227 N.3     
  16 C16            6.7729    -1.4203    -2.4724 C.3     
  17 C17            6.6753    -3.5228    -1.2753 C.3     
  18 C18           -1.1945    -0.8493     0.0097 C.3     
  19 C19           -1.6188    -1.1320    -1.4084 C.ar    
  20 C20           -0.9709    -2.1153    -2.1432 C.ar    
  21 C21           -1.3617    -2.3749    -3.4475 C.ar    
  22 C22           -2.3994    -1.6511    -4.0149 C.ar    
  23 C23           -3.0440    -0.6692    -3.2763 C.ar    
  24 C24           -2.6562    -0.4162    -1.9742 C.ar    
  25 O25           -2.7845    -1.9030    -5.2936 O.3     
  26 C26           -3.8604    -1.1193    -5.8135 C.3     
  27 O27            0.0461    -2.8226    -1.5844 O.3     
  28 C28            0.6673    -3.8191    -2.3988 C.3     
  29 H29            5.2213     2.1840    -0.0357 H       
  30 H30            3.8008     4.1816    -0.0118 H       
  31 H31            1.3459     3.9694     0.0117 H       
  32 H32            6.0520     0.4846    -0.9429 H       
  33 H33            6.0689     0.4757     0.8369 H       
  34 H34            7.5734    -1.2712     0.0134 H       
  35 H35            6.1573    -2.0344     0.7754 H       
  36 H36            7.8548    -1.3544    -2.3570 H       
  37 H37            6.5376    -1.9610    -3.3891 H       
  38 H38            6.3511    -0.4166    -2.5240 H       
  39 H39            6.1826    -4.0474    -0.4567 H       
  40 H40            6.4420    -4.0188    -2.2174 H       
  41 H41            7.7537    -3.5329    -1.1166 H       
  42 H42           -0.9727    -1.7884     0.5166 H       
  43 H43           -1.9995    -0.3347     0.5341 H       
  44 H44           -0.8586    -3.1393    -4.0210 H       
  45 H45           -3.8523    -0.1053    -3.7178 H       
  46 H46           -3.1620     0.3455    -1.3994 H       
  47 H47           -4.7505    -1.2741    -5.2036 H       
  48 H48           -3.5849    -0.0649    -5.7929 H       
  49 H49           -4.0666    -1.4209    -6.8404 H       
  50 H50            1.0902    -3.3503    -3.2873 H       
  51 H51            1.4608    -4.3076    -1.8332 H       
  52 H52           -0.0751    -4.5593    -2.6970 H       
@<TRIPOS>BOND
   1    1    2 am
   2    1    9 1
   3    1   10 2
   4    2    3 am
   5    2   18 1
   6    3    4 1
   7    3   11 2
   8    4    5 ar
   9    4    9 ar
  10    5    6 ar
  11    5   12 1
  12    6    7 ar
  13    6   29 1
  14    7    8 ar
  15    7   30 1
  16    8    9 ar
  17    8   31 1
  18   12   13 1
  19   13   14 1
  20   13   32 1
  21   13   33 1
  22   14   15 1
  23   14   34 1
  24   14   35 1
  25   15   16 1
  26   15   17 1
  27   16   36 1
  28   16   37 1
  29   16   38 1
  30   17   39 1
  31   17   40 1
  32   17   41 1
  33   18   19 1
  34   18   42 1
  35   18   43 1
  36   19   20 ar
  37   19   24 ar
  38   20   21 ar
  39   20   27 1
  40   21   22 ar
  41   21   44 1
  42   22   23 ar
  43   22   25 1
  44   23   24 ar
  45   23   45 1
  46   24   46 1
  47   25   26 1
  48   26   47 1
  49   26   48 1
  50   26   49 1
  51   27   28 1
  52   28   50 1
  53   28   51 1
  54   28   52 1

#	End of record

