#	Name: ASD03731037
#	Creating user name:	WinNT
#	Creation time:	15. 06. 2019 20:45

#	Modifying user name:	WinNT
#	Modification time:	15. 06. 2019 20:45

#	Program:	/corina/corina34_cracker 3.40 0067  02.08.2006

@<TRIPOS>MOLECULE
ASD03731037
  54   60    0    0    0
SMALL
NO_CHARGES


@<TRIPOS>ATOM
   1 O1             1.6389     1.5065     1.0552 O.3     
   2 C2             2.0283     0.1315     1.2312 C.3     
   3 O3             3.2804     0.0372     0.5270 O.3     
   4 C4             3.8150     1.2934     0.5618 C.ar    
   5 C5             2.8051     2.1965     0.8856 C.ar    
   6 C6             5.1032     1.7463     0.3405 C.ar    
   7 C7             5.3999     3.1025     0.4373 C.ar    
   8 C8             4.3810     3.9961     0.7532 C.ar    
   9 C9             3.0969     3.5468     0.9805 C.ar    
  10 O10            6.5907     3.7478     0.2769 O.3     
  11 C11            4.9994     5.3684     0.7546 C.3     
  12 C12            6.3449     5.1490     0.0496 C.3     
  13 N13            3.8839     7.3563     0.9229 N.am    
  14 C14            4.1487     6.3760     0.0363 C.2     
  15 C15            5.1762     5.9132     2.1409 C.ar    
  16 C16            5.8428     5.4673     3.2604 C.ar    
  17 C17            5.8201     6.2151     4.4241 C.ar    
  18 C18            5.1264     7.4110     4.4601 C.ar    
  19 C19            4.4565     7.8616     3.3418 C.ar    
  20 C20            4.4741     7.1155     2.1659 C.ar    
  21 O21            3.7738     6.3191    -1.1158 O.2     
  22 C22            3.0722     8.5372     0.6180 C.3     
  23 O23           -0.4423     7.6259     0.3069 O.3     
  24 N24           -0.3790     7.7742     1.5050 N.2     
  25 C25            0.8178     8.1152     1.8904 C.2     
  26 C26            1.6112     8.1842     0.7267 C.2     
  27 C27            0.7452     7.8569    -0.2809 C.2     
  28 C28            1.0530     7.7735    -1.7245 C.ar    
  29 C29            0.0209     7.6416    -2.6546 C.ar    
  30 C30            0.3149     7.5648    -4.0004 C.ar    
  31 C31            1.6295     7.6177    -4.4285 C.ar    
  32 C32            2.6573     7.7483    -3.5116 C.ar    
  33 C33            2.3765     7.8320    -2.1634 C.ar    
  34 C34            1.2665     8.3841     3.3037 C.3     
  35 H35            2.1655    -0.0952     2.2885 H       
  36 H36            1.2887    -0.5356     0.7884 H       
  37 H37            5.8838     1.0428     0.0914 H       
  38 H38            2.3169     4.2499     1.2327 H       
  39 H39            7.1251     5.7580     0.5062 H       
  40 H40            6.2622     5.3596    -1.0167 H       
  41 H41            6.3834     4.5328     3.2300 H       
  42 H42            6.3424     5.8656     5.3024 H       
  43 H43            5.1090     7.9949     5.3685 H       
  44 H44            3.9163     8.7961     3.3781 H       
  45 H45            3.3075     9.3323     1.3254 H       
  46 H46            3.2898     8.8759    -0.3949 H       
  47 H47           -1.0056     7.5995    -2.3217 H       
  48 H48           -0.4829     7.4628    -4.7212 H       
  49 H49            1.8543     7.5564    -5.4831 H       
  50 H50            3.6813     7.7890    -3.8523 H       
  51 H51            3.1794     7.9384    -1.4490 H       
  52 H52            1.6221     7.4577     3.7545 H       
  53 H53            2.0732     9.1172     3.2955 H       
  54 H54            0.4289     8.7722     3.8832 H       
@<TRIPOS>BOND
   1    1    2 1
   2    1    5 1
   3    2    3 1
   4    2   35 1
   5    2   36 1
   6    3    4 1
   7    4    5 ar
   8    4    6 ar
   9    5    9 ar
  10    6    7 ar
  11    6   37 1
  12    7    8 ar
  13    7   10 1
  14    8    9 ar
  15    8   11 1
  16    9   38 1
  17   10   12 1
  18   11   12 1
  19   11   14 1
  20   11   15 1
  21   12   39 1
  22   12   40 1
  23   13   14 am
  24   13   20 1
  25   13   22 1
  26   14   21 2
  27   15   16 ar
  28   15   20 ar
  29   16   17 ar
  30   16   41 1
  31   17   18 ar
  32   17   42 1
  33   18   19 ar
  34   18   43 1
  35   19   20 ar
  36   19   44 1
  37   22   26 1
  38   22   45 1
  39   22   46 1
  40   23   24 1
  41   23   27 1
  42   24   25 2
  43   25   26 1
  44   25   34 1
  45   26   27 2
  46   27   28 1
  47   28   29 ar
  48   28   33 ar
  49   29   30 ar
  50   29   47 1
  51   30   31 ar
  52   30   48 1
  53   31   32 ar
  54   31   49 1
  55   32   33 ar
  56   32   50 1
  57   33   51 1
  58   34   52 1
  59   34   53 1
  60   34   54 1

#	End of record

