#	Name: ASD04880171
#	Creating user name:	WinNT
#	Creation time:	15. 06. 2019 20:52

#	Modifying user name:	WinNT
#	Modification time:	15. 06. 2019 20:52

#	Program:	/corina/corina34_cracker 3.40 0067  02.08.2006

@<TRIPOS>MOLECULE
ASD04880171
  49   51    0    0    0
SMALL
NO_CHARGES


@<TRIPOS>ATOM
   1 C1            -0.0144     1.2124     0.0087 C.2     
   2 O2             0.0387    -0.0029    -0.0121 O.2     
   3 C3             1.2269     2.0042    -0.0172 C.ar    
   4 C4             1.1693     3.3968    -0.1354 C.ar    
   5 C5             2.3309     4.1329    -0.1588 C.ar    
   6 C6             3.5656     3.4972    -0.0652 C.ar    
   7 C7             3.6344     2.1170     0.0518 C.ar    
   8 C8             2.4723     1.3654     0.0824 C.ar    
   9 N9            -1.2095     1.8341     0.0499 N.am    
  10 N10           -1.4047     3.2067     0.1890 N.2     
  11 C11           -2.6427     3.5637     0.2013 C.2     
  12 C12           -3.5221     2.3422     0.0565 C.3     
  13 C13           -2.5212     1.1747    -0.0509 C.3     
  14 C14           -3.1272     4.9494     0.3367 C.ar    
  15 C15           -2.2156     6.0007     0.4647 C.ar    
  16 C16           -2.6753     7.2982     0.5908 C.ar    
  17 C17           -4.0445     7.5554     0.5906 C.ar    
  18 C18           -4.9499     6.5119     0.4635 C.ar    
  19 C19           -4.4988     5.2155     0.3315 C.ar    
  20 O20           -4.4946     8.8320     0.7156 O.3     
  21 C21           -5.9105     9.0244     0.7077 C.3     
  22 O22           -1.7909     8.3237     0.7156 O.3     
  23 C23           -0.4021     7.9872     0.7084 C.3     
  24 O24            4.7070     4.2311    -0.0891 O.3     
  25 C25            4.5650     5.6477    -0.2120 C.3     
  26 O26            2.5373     0.0157     0.2030 O.3     
  27 C27            3.8394    -0.5650     0.2994 C.3     
  28 H28            0.2132     3.8937    -0.2086 H       
  29 H29            2.2849     5.2080    -0.2504 H       
  30 H30            4.5950     1.6286     0.1238 H       
  31 H31           -4.1598     2.2242     0.9326 H       
  32 H32           -4.1242     2.4098    -0.8496 H       
  33 H33           -2.6227     0.6672    -1.0102 H       
  34 H34           -2.6625     0.4738     0.7718 H       
  35 H35           -1.1545     5.7999     0.4654 H       
  36 H36           -6.0105     6.7158     0.4642 H       
  37 H37           -5.2057     4.4056     0.2283 H       
  38 H38           -6.3566     8.4742     1.5361 H       
  39 H39           -6.1335    10.0860     0.8147 H       
  40 H40           -6.3215     8.6599    -0.2338 H       
  41 H41           -0.1874     7.3128     1.5373 H       
  42 H42           -0.1518     7.4975    -0.2327 H       
  43 H43            0.1922     8.8947     0.8150 H       
  44 H44            4.0470     5.8816    -1.1421 H       
  45 H45            3.9888     6.0296     0.6307 H       
  46 H46            5.5509     6.1125    -0.2185 H       
  47 H47            4.4124    -0.3230    -0.5957 H       
  48 H48            4.3504    -0.1676     1.1764 H       
  49 H49            3.7487    -1.6473     0.3911 H       
@<TRIPOS>BOND
   1    1    2 2
   2    1    3 1
   3    1    9 am
   4    3    4 ar
   5    3    8 ar
   6    4    5 ar
   7    4   28 1
   8    5    6 ar
   9    5   29 1
  10    6    7 ar
  11    6   24 1
  12    7    8 ar
  13    7   30 1
  14    8   26 1
  15    9   10 1
  16    9   13 1
  17   10   11 2
  18   11   12 1
  19   11   14 1
  20   12   13 1
  21   12   31 1
  22   12   32 1
  23   13   33 1
  24   13   34 1
  25   14   15 ar
  26   14   19 ar
  27   15   16 ar
  28   15   35 1
  29   16   17 ar
  30   16   22 1
  31   17   18 ar
  32   17   20 1
  33   18   19 ar
  34   18   36 1
  35   19   37 1
  36   20   21 1
  37   21   38 1
  38   21   39 1
  39   21   40 1
  40   22   23 1
  41   23   41 1
  42   23   42 1
  43   23   43 1
  44   24   25 1
  45   25   44 1
  46   25   45 1
  47   25   46 1
  48   26   27 1
  49   27   47 1
  50   27   48 1
  51   27   49 1

#	End of record

