#	Name: ASD01190061
#	Creating user name:	WinNT
#	Creation time:	15. 06. 2019 19:07

#	Modifying user name:	WinNT
#	Modification time:	15. 06. 2019 19:07

#	Program:	/corina/corina34_cracker 3.40 0067  02.08.2006

@<TRIPOS>MOLECULE
ASD01190061
  44   48    0    0    0
SMALL
NO_CHARGES


@<TRIPOS>ATOM
   1 C1            -0.0187     1.5258     0.0104 C.3     
   2 C2             0.5401     0.1186    -0.2099 C.3     
   3 C3             2.2598     4.2969     1.1446 C.ar    
   4 C4             0.9731     3.8690     0.7642 C.ar    
   5 C5            -0.0781     4.7881     0.7433 C.ar    
   6 C6             0.1943     6.0952     1.1017 C.ar    
   7 C7             1.4850     6.4465     1.4655 C.ar    
   8 N8             2.4618     5.5646     1.4781 N.ar    
   9 N9             3.0855     3.2009     1.0698 N.pl3   
  10 C10            1.0896     2.4412     0.4628 C.2     
  11 C11            2.3742     2.1052     0.6596 C.2     
  12 C12           -1.5515     2.9865    -3.6648 C.ar    
  13 C13           -2.4520     2.6966    -2.6199 C.ar    
  14 C14           -1.9561     2.2141    -1.4035 C.ar    
  15 C15           -0.6019     2.0424    -1.2796 C.ar    
  16 C16            0.2292     2.3472    -2.3480 C.ar    
  17 N17           -0.2500     2.8001    -3.4863 N.ar    
  18 N18           -3.6551     3.4383    -4.3473 N.2     
  19 N19           -2.3062     3.4399    -4.7158 N.pl3   
  20 C20           -3.7853     3.0042    -3.1259 C.2     
  21 C21           -1.8056     3.8414    -5.9606 C.ar    
  22 C22           -2.5347     3.5942    -7.1164 C.ar    
  23 C23           -2.0383     3.9913    -8.3425 C.ar    
  24 C24           -0.8166     4.6346    -8.4200 C.ar    
  25 C25           -0.0881     4.8822    -7.2709 C.ar    
  26 C26           -0.5817     4.4927    -6.0412 C.ar    
  27 F27            1.0815    -0.3610     0.9876 F       
  28 F28           -0.4888    -0.7312    -0.6299 F       
  29 F29            1.5385     0.1613    -1.1890 F       
  30 O30           -1.0385     1.4821     1.0105 O.3     
  31 H31           -1.0744     4.4868     0.4553 H       
  32 H32           -0.5915     6.8361     1.0980 H       
  33 H33            1.6940     7.4686     1.7449 H       
  34 H34            4.0331     3.2033     1.2766 H       
  35 H35            2.7850     1.1163     0.5189 H       
  36 H36           -2.6220     1.9837    -0.5850 H       
  37 H37            1.2952     2.2095    -2.2425 H       
  38 H38           -4.7130     2.8969    -2.5834 H       
  39 H39           -3.4887     3.0916    -7.0566 H       
  40 H40           -2.6046     3.7991    -9.2418 H       
  41 H41           -0.4303     4.9438    -9.3800 H       
  42 H42            0.8659     5.3845    -7.3347 H       
  43 H43           -0.0146     4.6906    -5.1437 H       
  44 H44           -1.4385     2.3414     1.2021 H       
@<TRIPOS>BOND
   1    1    2 1
   2    1   10 1
   3    1   15 1
   4    1   30 1
   5    2   27 1
   6    2   28 1
   7    2   29 1
   8    3    4 ar
   9    3    8 ar
  10    3    9 1
  11    4    5 ar
  12    4   10 1
  13    5    6 ar
  14    5   31 1
  15    6    7 ar
  16    6   32 1
  17    7    8 ar
  18    7   33 1
  19    9   11 1
  20    9   34 1
  21   10   11 2
  22   11   35 1
  23   12   13 ar
  24   12   17 ar
  25   12   19 1
  26   13   14 ar
  27   13   20 1
  28   14   15 ar
  29   14   36 1
  30   15   16 ar
  31   16   17 ar
  32   16   37 1
  33   18   19 1
  34   18   20 2
  35   19   21 1
  36   20   38 1
  37   21   22 ar
  38   21   26 ar
  39   22   23 ar
  40   22   39 1
  41   23   24 ar
  42   23   40 1
  43   24   25 ar
  44   24   41 1
  45   25   26 ar
  46   25   42 1
  47   26   43 1
  48   30   44 1

#	End of record

