#	Name: ASD02160010
#	Creating user name:	WinNT
#	Creation time:	15. 06. 2019 20:18

#	Modifying user name:	WinNT
#	Modification time:	15. 06. 2019 20:18

#	Program:	/corina/corina34_cracker 3.40 0067  02.08.2006

@<TRIPOS>MOLECULE
ASD02160010
  52   54    0    0    0
SMALL
NO_CHARGES


@<TRIPOS>ATOM
   1 C1             0.2647     2.1552     0.0155 C.3     
   2 C2             0.6061     0.7008     0.1748 C.2     
   3 C3             1.8188     0.2252    -0.1568 C.2     
   4 N4             2.7885     1.0577    -0.6453 N.pl3   
   5 C5             2.6861     2.4114    -0.4746 C.2     
   6 C6             1.5097     2.9781    -0.1565 C.2     
   7 C7             2.1142    -1.2429     0.0121 C.3     
   8 C8             3.9076     3.2775    -0.6446 C.3     
   9 C9             1.4427     4.3795     0.0207 C.2     
  10 O10            2.4432     5.0586    -0.1154 O.2     
  11 O11            0.2690     4.9638     0.3408 O.3     
  12 C12            0.2744     6.3834     0.5046 C.3     
  13 C13           -1.1132     6.8536     0.8574 C.ar    
  14 C14           -0.6159     2.3285    -1.1951 C.ar    
  15 C15           -0.3694    -0.1870     0.6849 C.2     
  16 O16           -1.0623    -0.9835    -0.1556 O.3     
  17 O17           -0.5839    -0.2326     1.8819 O.2     
  18 C18           -2.0084     7.2010    -0.1369 C.ar    
  19 C19           -1.5099     6.9377     2.1830 C.ar    
  20 C20           -2.7961     7.3756     2.4605 C.ar    
  21 C21           -3.6336     7.7112     1.4140 C.ar    
  22 N22           -3.2240     7.6137     0.1641 N.ar    
  23 C23           -2.2311     2.6470    -3.4162 C.ar    
  24 C24           -0.9146     2.2536    -3.5695 C.ar    
  25 C25           -0.1070     2.0946    -2.4592 C.ar    
  26 C26           -1.9337     2.7157    -1.0414 C.ar    
  27 C27           -2.7415     2.8748    -2.1521 C.ar    
  28 C28           -2.0321    -1.8555     0.4285 C.3     
  29 N29           -2.4803     2.9597     0.3123 N.pl3   
  30 O30           -2.1914     2.2123     1.2296 O.2     
  31 O31           -3.2191     3.9079     0.5090 O.2     
  32 H32           -0.2720     2.4968     0.9006 H       
  33 H33            3.5521     0.6866    -1.1144 H       
  34 H34            1.7655    -1.7870    -0.8656 H       
  35 H35            3.1888    -1.3866     0.1255 H       
  36 H36            1.6021    -1.6169     0.8987 H       
  37 H37            4.7636     2.6524    -0.8988 H       
  38 H38            3.7337     3.9980    -1.4438 H       
  39 H39            4.1089     3.8084     0.2858 H       
  40 H40            0.9641     6.6543     1.3040 H       
  41 H41            0.5925     6.8551    -0.4251 H       
  42 H42           -1.7086     7.1340    -1.1723 H       
  43 H43           -0.8335     6.6682     2.9807 H       
  44 H44           -3.1390     7.4530     3.4817 H       
  45 H45           -4.6368     8.0531     1.6217 H       
  46 H46           -2.8621     2.7712    -4.2838 H       
  47 H47           -0.5157     2.0755    -4.5573 H       
  48 H48            0.9216     1.7881    -2.5790 H       
  49 H49           -3.7699     3.1821    -2.0323 H       
  50 H50           -2.5155    -2.4385    -0.3554 H       
  51 H51           -1.5396    -2.5284     1.1305 H       
  52 H52           -2.7809    -1.2647     0.9561 H       
@<TRIPOS>BOND
   1    1    2 1
   2    1    6 1
   3    1   14 1
   4    1   32 1
   5    2    3 2
   6    2   15 1
   7    3    4 1
   8    3    7 1
   9    4    5 1
  10    4   33 1
  11    5    6 2
  12    5    8 1
  13    6    9 1
  14    7   34 1
  15    7   35 1
  16    7   36 1
  17    8   37 1
  18    8   38 1
  19    8   39 1
  20    9   10 2
  21    9   11 1
  22   11   12 1
  23   12   13 1
  24   12   40 1
  25   12   41 1
  26   13   19 ar
  27   13   18 ar
  28   14   26 ar
  29   14   25 ar
  30   15   16 1
  31   15   17 2
  32   16   28 1
  33   18   22 ar
  34   18   42 1
  35   19   20 ar
  36   19   43 1
  37   20   21 ar
  38   20   44 1
  39   21   22 ar
  40   21   45 1
  41   23   24 ar
  42   23   27 ar
  43   23   46 1
  44   24   25 ar
  45   24   47 1
  46   25   48 1
  47   26   27 ar
  48   26   29 1
  49   27   49 1
  50   28   50 1
  51   28   51 1
  52   28   52 1
  53   29   30 2
  54   29   31 2

#	End of record

