#	Name: ASD06352002
#	Creating user name:	WinNT
#	Creation time:	15. 06. 2019 21:06

#	Modifying user name:	WinNT
#	Modification time:	15. 06. 2019 21:06

#	Program:	/corina/corina34_cracker 3.40 0067  02.08.2006

@<TRIPOS>MOLECULE
ASD06352002
  35   34    0    0    0
SMALL
NO_CHARGES


@<TRIPOS>ATOM
   1 C1            -0.0144     1.2086     0.0087 C.2     
   2 O2             0.0021    -0.0041     0.0020 O.2     
   3 N3             2.3715     1.1097     0.4591 N.3     
   4 C4             1.2803     1.9798     0.0005 C.3     
   5 C5             1.5768     2.4636    -1.4204 C.3     
   6 C6             0.4403     3.3698    -1.8981 C.3     
   7 C7             2.8912     3.2466    -1.4288 C.3     
   8 C8            -3.5426     1.9694    -0.5709 C.2     
   9 O9            -3.2958     3.0884    -0.9541 O.2     
  10 N10           -1.1906     1.8666     0.0178 N.am    
  11 C11           -2.4492     1.1169     0.0197 C.3     
  12 C12           -2.8163     0.7401     1.4565 C.3     
  13 C13           -4.1308    -0.0428     1.4585 C.3     
  14 C14           -1.7062    -0.1254     2.0561 C.3     
  15 O15           -4.7906     1.4856    -0.6713 O.3     
  16 H16            2.4700     0.3057    -0.1425 H       
  17 H17            3.2388     1.6212     0.5241 H       
  18 H18            1.1960     2.8385     0.6665 H       
  19 H19            1.6611     1.6049    -2.0865 H       
  20 H20           -0.4961     2.8120    -1.8922 H       
  21 H21            0.3560     4.2285    -1.2321 H       
  22 H22            0.6515     3.7145    -2.9104 H       
  23 H23            3.7008     2.6010    -1.0885 H       
  24 H24            3.1024     3.5912    -2.4411 H       
  25 H25            2.8069     4.1053    -0.7628 H       
  26 H26           -1.2037     2.8365     0.0232 H       
  27 H27           -2.3335     0.2109    -0.5752 H       
  28 H28           -2.9321     1.6460     2.0514 H       
  29 H29           -4.0150    -0.9488     0.8635 H       
  30 H30           -4.3922    -0.3113     2.4820 H       
  31 H31           -4.9216     0.5738     1.0312 H       
  32 H32           -0.7698     0.4323     2.0547 H       
  33 H33           -1.9677    -0.3939     3.0797 H       
  34 H34           -1.5904    -1.0314     1.4612 H       
  35 H35           -5.4581     2.0695    -1.0569 H       
@<TRIPOS>BOND
   1    1    2 2
   2    1    4 1
   3    1   10 am
   4    3    4 1
   5    3   16 1
   6    3   17 1
   7    4    5 1
   8    4   18 1
   9    5    6 1
  10    5    7 1
  11    5   19 1
  12    6   20 1
  13    6   21 1
  14    6   22 1
  15    7   23 1
  16    7   24 1
  17    7   25 1
  18    8    9 2
  19    8   11 1
  20    8   15 1
  21   10   11 1
  22   10   26 1
  23   11   12 1
  24   11   27 1
  25   12   13 1
  26   12   14 1
  27   12   28 1
  28   13   29 1
  29   13   30 1
  30   13   31 1
  31   14   32 1
  32   14   33 1
  33   14   34 1
  34   15   35 1

#	End of record

