#	Name: ASD01870020
#	Creating user name:	WinNT
#	Creation time:	15. 06. 2019 19:38

#	Modifying user name:	WinNT
#	Modification time:	15. 06. 2019 19:38

#	Program:	/corina/corina34_cracker 3.40 0067  02.08.2006

@<TRIPOS>MOLECULE
ASD01870020
  31   33    0    0    0
SMALL
NO_CHARGES


@<TRIPOS>ATOM
   1 C1            -0.0167     1.3801     0.0096 C.ar    
   2 C2             0.0021    -0.0041     0.0020 C.ar    
   3 C3             1.1999    -0.6947    -0.0081 C.ar    
   4 C4             2.3974    -0.0001    -0.0108 C.ar    
   5 C5             2.3753     1.4045    -0.0134 C.ar    
   6 C6             1.1685     2.0909     0.0021 C.ar    
   7 O7             3.5846    -0.6573     0.0059 O.3     
   8 C8             4.6510    -0.1347    -0.7942 C.3     
   9 C9             4.7652     1.4018    -0.8456 C.3     
  10 C10            3.6762     2.1179    -0.0493 C.2     
  11 N11            3.8712     3.2515     0.5436 N.2     
  12 C12            4.2854     0.6188    -2.0719 C.3     
  13 O13            5.1376     3.8806     0.4696 O.3     
  14 C14            5.9211    -0.9458    -0.7990 C.2     
  15 C15            5.9422    -2.3166    -0.1732 C.3     
  16 O16            7.2491    -2.8796    -0.3034 O.3     
  17 C17            7.3779    -4.1862     0.2607 C.3     
  18 O18            6.9220    -0.4974    -1.3044 O.2     
  19 H19           -0.9600     1.9059     0.0170 H       
  20 H20           -0.9294    -0.5507     0.0044 H       
  21 H21            1.2012    -1.7746    -0.0137 H       
  22 H22            1.1562     3.1708     0.0086 H       
  23 H23            5.7525     1.8637    -0.8482 H       
  24 H24            4.9702     0.5382    -2.9161 H       
  25 H25            3.2286     0.6873    -2.3298 H       
  26 H26            5.1870     4.7223     0.9430 H       
  27 H27            5.6841    -2.2378     0.8829 H       
  28 H28            5.2187    -2.9573    -0.6772 H       
  29 H29            7.1496    -4.1462     1.3258 H       
  30 H30            6.6842    -4.8657    -0.2343 H       
  31 H31            8.3983    -4.5433     0.1210 H       
@<TRIPOS>BOND
   1    1    2 ar
   2    1    6 ar
   3    1   19 1
   4    2    3 ar
   5    2   20 1
   6    3    4 ar
   7    3   21 1
   8    4    5 ar
   9    4    7 1
  10    5    6 ar
  11    5   10 1
  12    6   22 1
  13    7    8 1
  14    8   12 1
  15    8   14 1
  16    8    9 1
  17    9   10 1
  18    9   12 1
  19    9   23 1
  20   10   11 2
  21   11   13 1
  22   12   24 1
  23   12   25 1
  24   13   26 1
  25   14   15 1
  26   14   18 2
  27   15   16 1
  28   15   27 1
  29   15   28 1
  30   16   17 1
  31   17   29 1
  32   17   30 1
  33   17   31 1

#	End of record

