#	Name: ASD01917455
#	Creating user name:	WinNT
#	Creation time:	15. 06. 2019 20:09

#	Modifying user name:	WinNT
#	Modification time:	15. 06. 2019 20:09

#	Program:	/corina/corina34_cracker 3.40 0067  02.08.2006

@<TRIPOS>MOLECULE
ASD01917455
  55   58    0    0    0
SMALL
NO_CHARGES


@<TRIPOS>ATOM
   1 C1            -0.0180     1.4742     0.0101 C.2     
   2 C2             0.0021    -0.0041     0.0020 C.ar    
   3 C3             1.2173    -0.6995    -0.0133 C.ar    
   4 C4             1.1813    -2.0826    -0.0199 C.ar    
   5 C5            -0.0424    -2.7281    -0.0112 C.ar    
   6 N6            -1.1719    -2.0465     0.0032 N.ar    
   7 C7            -1.1895    -0.7297     0.0154 C.ar    
   8 O8             1.0263     2.0962     0.0035 O.2     
   9 N9            -1.1942     2.1321     0.0193 N.am    
  10 C10           -1.2141     3.5970     0.0274 C.3     
  11 C11           -0.4908     4.1900     1.2492 C.3     
  12 C12           -0.3553     5.7025     1.0628 C.3     
  13 C13           -1.7287     6.3350     0.8299 C.3     
  14 C14           -2.3987     5.6497    -0.3739 C.3     
  15 C15           -1.3372     5.5375    -1.4925 C.3     
  16 C16           -0.5655     4.2081    -1.2361 C.3     
  17 C17           -2.6537     4.1756     0.0378 C.3     
  18 C18           -3.5419     7.6321    -1.2107 C.2     
  19 C19           -4.7647     8.3347    -1.6546 C.ar    
  20 C20           -4.6973     9.6669    -2.0663 C.ar    
  21 C21           -5.8418    10.3164    -2.4797 C.ar    
  22 C22           -7.0549     9.6506    -2.4865 C.ar    
  23 C23           -7.1285     8.3304    -2.0797 C.ar    
  24 C24           -5.9902     7.6673    -1.6693 C.ar    
  25 O25           -2.4750     8.2144    -1.2037 O.2     
  26 N26           -3.6103     6.3459    -0.8138 N.am    
  27 C27           -5.7710    11.7545    -2.9246 C.3     
  28 C28            2.4614    -2.8775    -0.0369 C.3     
  29 H29            2.1585    -0.1699    -0.0202 H       
  30 H30           -0.0735    -3.8076    -0.0167 H       
  31 H31           -2.1345    -0.2071     0.0314 H       
  32 H32           -2.0276     1.6358     0.0206 H       
  33 H33           -1.0682     3.9839     2.1504 H       
  34 H34            0.4995     3.7435     1.3389 H       
  35 H35            0.0952     6.1369     1.9552 H       
  36 H36            0.2850     5.9041     0.2041 H       
  37 H37           -2.3474     6.2003     1.7171 H       
  38 H38           -1.6101     7.3988     0.6244 H       
  39 H39           -1.8228     5.5053    -2.4679 H       
  40 H40           -0.6502     6.3823    -1.4431 H       
  41 H41            0.4889     4.4151    -1.0533 H       
  42 H42           -0.6732     3.5263    -2.0797 H       
  43 H43           -3.2872     3.6604    -0.6842 H       
  44 H44           -3.0860     4.1300     1.0374 H       
  45 H45           -3.7513    10.1878    -2.0608 H       
  46 H46           -7.9481    10.1640    -2.8104 H       
  47 H47           -8.0783     7.8165    -2.0873 H       
  48 H48           -6.0483     6.6354    -1.3558 H       
  49 H49           -4.4617     5.8812    -0.8193 H       
  50 H50           -5.5796    11.7942    -3.9969 H       
  51 H51           -6.7172    12.2495    -2.7058 H       
  52 H52           -4.9650    12.2601    -2.3927 H       
  53 H53            2.7805    -3.0744     0.9866 H       
  54 H54            2.2953    -3.8227    -0.5538 H       
  55 H55            3.2344    -2.3106    -0.5557 H       
@<TRIPOS>BOND
   1    1    2 1
   2    1    8 2
   3    1    9 am
   4    2    3 ar
   5    2    7 ar
   6    3    4 ar
   7    3   29 1
   8    4    5 ar
   9    4   28 1
  10    5    6 ar
  11    5   30 1
  12    6    7 ar
  13    7   31 1
  14    9   10 1
  15    9   32 1
  16   10   11 1
  17   10   16 1
  18   10   17 1
  19   11   12 1
  20   11   33 1
  21   11   34 1
  22   12   13 1
  23   12   35 1
  24   12   36 1
  25   13   14 1
  26   13   37 1
  27   13   38 1
  28   14   15 1
  29   14   17 1
  30   14   26 1
  31   15   16 1
  32   15   39 1
  33   15   40 1
  34   16   41 1
  35   16   42 1
  36   17   43 1
  37   17   44 1
  38   18   19 1
  39   18   25 2
  40   18   26 am
  41   19   20 ar
  42   19   24 ar
  43   20   21 ar
  44   20   45 1
  45   21   22 ar
  46   21   27 1
  47   22   23 ar
  48   22   46 1
  49   23   24 ar
  50   23   47 1
  51   24   48 1
  52   26   49 1
  53   27   50 1
  54   27   51 1
  55   27   52 1
  56   28   53 1
  57   28   54 1
  58   28   55 1

#	End of record

