#	Name: ASD01000057
#	Creating user name:	WinNT
#	Creation time:	15. 06. 2019 18:54

#	Modifying user name:	WinNT
#	Modification time:	15. 06. 2019 18:54

#	Program:	/corina/corina34_cracker 3.40 0067  02.08.2006

@<TRIPOS>MOLECULE
ASD01000057
  45   48    0    0    0
SMALL
NO_CHARGES


@<TRIPOS>ATOM
   1 C1            -0.1213     1.4287    -0.0998 C.ar    
   2 C2            -0.0472     0.0347    -0.1131 C.ar    
   3 C3             1.1975    -0.5835    -0.0313 C.ar    
   4 C4             2.3456     0.1744     0.0610 C.ar    
   5 C5             2.2647     1.5557     0.0730 C.ar    
   6 C6             1.0324     2.1790    -0.0062 C.ar    
   7 C7             0.9678    -2.0745    -0.0672 C.3     
   8 C8            -0.5253    -2.2639    -0.1772 C.ar    
   9 C9             1.6569    -2.6770    -1.2643 C.ar    
  10 C10            0.9328    -2.9656    -2.4059 C.ar    
  11 C11            1.5648    -3.5183    -3.5041 C.ar    
  12 C12            2.9211    -3.7819    -3.4608 C.ar    
  13 C13            3.6454    -3.4924    -2.3195 C.ar    
  14 C14            3.0142    -2.9358    -1.2229 C.ar    
  15 C15           -1.1076    -0.9995    -0.2029 C.ar    
  16 C16           -2.4955    -0.8872    -0.3011 C.ar    
  17 C17           -3.2754    -2.0228    -0.3715 C.ar    
  18 C18           -2.6876    -3.2747    -0.3449 C.ar    
  19 C19           -1.3124    -3.3936    -0.2486 C.ar    
  20 S20            1.5834    -2.8382     1.4588 S.3     
  21 C21            1.1000    -4.5762     1.2691 C.3     
  22 C22            1.6844    -5.3968     2.4206 C.3     
  23 N23            3.1495    -5.2913     2.4028 N.3     
  24 C24            1.2828    -6.8407     2.2631 C.2     
  25 O25            2.0620    -7.6369     1.7954 O.2     
  26 O26            0.0594    -7.2423     2.6422 O.3     
  27 H27           -1.0810     1.9194    -0.1673 H       
  28 H28            3.3086    -0.3104     0.1242 H       
  29 H29            3.1649     2.1479     0.1457 H       
  30 H30            0.9735     3.2573     0.0034 H       
  31 H31           -0.1269    -2.7597    -2.4397 H       
  32 H32            0.9989    -3.7445    -4.3957 H       
  33 H33            3.4148    -4.2144    -4.3185 H       
  34 H34            4.7050    -3.6987    -2.2856 H       
  35 H35            3.5801    -2.7096    -0.3313 H       
  36 H36           -2.9585     0.0883    -0.3215 H       
  37 H37           -4.3491    -1.9342    -0.4475 H       
  38 H38           -3.3030    -4.1605    -0.3997 H       
  39 H39           -0.8554    -4.3719    -0.2281 H       
  40 H40            0.0129    -4.6545     1.2823 H       
  41 H41            1.4802    -4.9578     0.3215 H       
  42 H42            1.3042    -5.0152     3.3682 H       
  43 H43            3.5265    -5.6389     1.5339 H       
  44 H44            3.4457    -4.3415     2.5712 H       
  45 H45           -0.1525    -8.1780     2.5217 H       
@<TRIPOS>BOND
   1    1    2 ar
   2    1    6 ar
   3    1   27 1
   4    2    3 ar
   5    2   15 1
   6    3    4 ar
   7    3    7 1
   8    4    5 ar
   9    4   28 1
  10    5    6 ar
  11    5   29 1
  12    6   30 1
  13    7    8 1
  14    7    9 1
  15    7   20 1
  16    8   15 ar
  17    8   19 ar
  18    9   10 ar
  19    9   14 ar
  20   10   11 ar
  21   10   31 1
  22   11   12 ar
  23   11   32 1
  24   12   13 ar
  25   12   33 1
  26   13   14 ar
  27   13   34 1
  28   14   35 1
  29   15   16 ar
  30   16   17 ar
  31   16   36 1
  32   17   18 ar
  33   17   37 1
  34   18   19 ar
  35   18   38 1
  36   19   39 1
  37   20   21 1
  38   21   22 1
  39   21   40 1
  40   21   41 1
  41   22   24 1
  42   22   23 1
  43   22   42 1
  44   23   43 1
  45   23   44 1
  46   24   25 2
  47   24   26 1
  48   26   45 1

#	End of record

