#	Name: ASD01884211
#	Creating user name:	WinNT
#	Creation time:	15. 06. 2019 19:47

#	Modifying user name:	WinNT
#	Modification time:	15. 06. 2019 19:47

#	Program:	/corina/corina34_cracker 3.40 0067  02.08.2006

@<TRIPOS>MOLECULE
ASD01884211
  25   27    0    0    0
SMALL
NO_CHARGES


@<TRIPOS>ATOM
   1 C1            -0.0167     1.3806     0.0096 C.ar    
   2 C2             0.0021    -0.0041     0.0020 C.ar    
   3 C3            -1.1694    -0.7248     0.0094 C.ar    
   4 C4            -2.4121    -0.0739     0.0247 C.ar    
   5 C5            -2.4098     1.3217     0.0327 C.ar    
   6 C6            -1.2299     2.0433     0.0306 C.ar    
   7 Br7            1.6030     2.3565    -0.0006 Br      
   8 N8            -3.6725    -0.6448     0.0333 N.am    
   9 C9            -4.7399     0.1594     0.0479 C.2     
  10 S10           -4.1086     1.8146     0.0514 S.3     
  11 O11           -5.9095    -0.1774     0.0570 O.2     
  12 C12           -3.8336    -2.1009     0.0260 C.3     
  13 C13           -3.8760    -2.6165     1.4659 C.3     
  14 C14           -4.1576    -4.1058     1.6750 C.3     
  15 C15           -2.7516    -3.5521     1.9146 C.3     
  16 H16            0.9483    -0.5245    -0.0102 H       
  17 H17           -1.1321    -1.8041     0.0028 H       
  18 H18           -1.2563     3.1229     0.0369 H       
  19 H19           -4.7631    -2.3611    -0.4806 H       
  20 H20           -2.9940    -2.5568    -0.4986 H       
  21 H21           -4.2761    -1.9203     2.2030 H       
  22 H22           -4.7427    -4.3894     2.5498 H       
  23 H23           -4.3127    -4.7182     0.7867 H       
  24 H24           -1.9817    -3.8003     1.1840 H       
  25 H25           -2.4116    -3.4715     2.9471 H       
@<TRIPOS>BOND
   1    1    2 ar
   2    1    7 1
   3    1    6 ar
   4    2    3 ar
   5    2   16 1
   6    3    4 ar
   7    3   17 1
   8    4    5 ar
   9    4    8 1
  10    5    6 ar
  11    5   10 1
  12    6   18 1
  13    8    9 am
  14    8   12 1
  15    9   10 1
  16    9   11 2
  17   12   13 1
  18   12   19 1
  19   12   20 1
  20   13   14 1
  21   13   15 1
  22   13   21 1
  23   14   15 1
  24   14   22 1
  25   14   23 1
  26   15   24 1
  27   15   25 1

#	End of record

