#	Name: ASD05170035
#	Creating user name:	WinNT
#	Creation time:	15. 06. 2019 20:57

#	Modifying user name:	WinNT
#	Modification time:	15. 06. 2019 20:57

#	Program:	/corina/corina34_cracker 3.40 0067  02.08.2006

@<TRIPOS>MOLECULE
ASD05170035
  43   45    0    0    0
SMALL
NO_CHARGES


@<TRIPOS>ATOM
   1 C1            -0.0315     1.3791    -0.1817 C.2     
   2 C2             0.0002    -0.0173    -0.0976 C.2     
   3 C3             1.2228    -0.6627    -0.0690 C.2     
   4 C4             2.4025     0.1060    -0.1255 C.2     
   5 C5             2.3235     1.4516    -0.2062 C.2     
   6 N6             1.1168     2.0794    -0.2337 N.am    
   7 O7            -1.1034     1.9634    -0.2129 O.2     
   8 O8             1.2855    -2.0134     0.0125 O.3     
   9 C9             0.0437    -2.7185     0.0662 C.3     
  10 C10            0.3141    -4.2218     0.1551 C.3     
  11 C11            1.2289    -4.5056     1.3483 C.3     
  12 O12            0.9481    -4.6636    -1.0469 O.3     
  13 C13            0.7981    -5.9731    -1.3781 C.ar    
  14 C14            0.1556    -6.8409    -0.5071 C.ar    
  15 C15            0.0044    -8.1716    -0.8461 C.ar    
  16 C16            0.4928    -8.6387    -2.0523 C.ar    
  17 C17            1.1340    -7.7759    -2.9219 C.ar    
  18 C18            1.2823    -6.4431    -2.5903 C.ar    
  19 C19            1.0686     3.4771    -0.3182 C.ar    
  20 C20            1.5488     4.2538     0.7279 C.ar    
  21 C21            1.5004     5.6313     0.6427 C.ar    
  22 C22            0.9733     6.2382    -0.4850 C.ar    
  23 C23            0.4934     5.4654    -1.5292 C.ar    
  24 C24            0.5457     4.0876    -1.4505 C.ar    
  25 F25            0.9268     7.5859    -0.5664 F       
  26 H26           -0.9184    -0.5836    -0.0551 H       
  27 H27            3.3669    -0.3796    -0.1041 H       
  28 H28            3.2300     2.0371    -0.2493 H       
  29 H29           -0.5185    -2.3979     0.9433 H       
  30 H30           -0.5340    -2.5059    -0.8334 H       
  31 H31           -0.6284    -4.7534     0.2854 H       
  32 H32            2.1715    -3.9740     1.2180 H       
  33 H33            0.7453    -4.1686     2.2651 H       
  34 H34            1.4216    -5.5766     1.4116 H       
  35 H35           -0.2258    -6.4766     0.4354 H       
  36 H36           -0.4954    -8.8476    -0.1682 H       
  37 H37            0.3737    -9.6793    -2.3155 H       
  38 H38            1.5153    -8.1434    -3.8632 H       
  39 H39            1.7789    -5.7685    -3.2720 H       
  40 H40            1.9596     3.7809     1.6077 H       
  41 H41            1.8735     6.2357     1.4563 H       
  42 H42            0.0821     5.9405    -2.4075 H       
  43 H43            0.1758     3.4853    -2.2670 H       
@<TRIPOS>BOND
   1    1    2 1
   2    1    6 am
   3    1    7 2
   4    2    3 2
   5    2   26 1
   6    3    4 1
   7    3    8 1
   8    4    5 2
   9    4   27 1
  10    5    6 1
  11    5   28 1
  12    6   19 1
  13    8    9 1
  14    9   10 1
  15    9   29 1
  16    9   30 1
  17   10   11 1
  18   10   12 1
  19   10   31 1
  20   11   32 1
  21   11   33 1
  22   11   34 1
  23   12   13 1
  24   13   14 ar
  25   13   18 ar
  26   14   15 ar
  27   14   35 1
  28   15   16 ar
  29   15   36 1
  30   16   17 ar
  31   16   37 1
  32   17   18 ar
  33   17   38 1
  34   18   39 1
  35   19   20 ar
  36   19   24 ar
  37   20   21 ar
  38   20   40 1
  39   21   22 ar
  40   21   41 1
  41   22   23 ar
  42   22   25 1
  43   23   24 ar
  44   23   42 1
  45   24   43 1

#	End of record

