#	Name: ASD01917368
#	Creating user name:	WinNT
#	Creation time:	15. 06. 2019 20:09

#	Modifying user name:	WinNT
#	Modification time:	15. 06. 2019 20:09

#	Program:	/corina/corina34_cracker 3.40 0067  02.08.2006

@<TRIPOS>MOLECULE
ASD01917368
  53   57    0    0    0
SMALL
NO_CHARGES


@<TRIPOS>ATOM
   1 C1            -0.0322     1.3936     0.0824 C.ar    
   2 C2            -0.0218    -0.0201     0.1081 C.ar    
   3 C3            -1.2199    -0.7323     0.1578 C.ar    
   4 C4            -2.4082    -0.0615     0.1681 C.ar    
   5 C5            -2.4360     1.3390     0.1269 C.ar    
   6 C6            -1.2522     2.0677     0.0856 C.ar    
   7 N7             1.1487     2.0514     0.0656 N.2     
   8 C8             2.3051     1.4360     0.0447 C.2     
   9 N9             2.3976     0.0849    -0.0405 N.am    
  10 C10            1.2825    -0.6883     0.0666 C.2     
  11 O11            1.3659    -1.9014     0.1267 O.2     
  12 C12           -3.7328     2.0467     0.1270 C.2     
  13 C13           -4.7689     1.9764    -0.9711 C.3     
  14 N14           -5.6648     3.1344    -0.7429 N.3     
  15 C15           -5.5383     3.3722     0.7143 C.3     
  16 C16           -4.1753     2.8405     1.0935 C.2     
  17 C17           -6.9823     2.8234    -1.0868 C.ar    
  18 C18           -7.5986     1.7050    -0.5403 C.ar    
  19 C19           -8.9018     1.3993    -0.8813 C.ar    
  20 C20           -9.5939     2.2047    -1.7663 C.ar    
  21 C21           -8.9832     3.3212    -2.3138 C.ar    
  22 C22           -7.6805     3.6352    -1.9715 C.ar    
  23 C23            3.5256     2.3091     0.1726 C.3     
  24 C24            4.7809     1.6364    -0.3375 C.3     
  25 C25            4.8740     0.1894     0.1012 C.3     
  26 C26            3.6543    -0.6107    -0.2964 C.3     
  27 C27            6.1120    -0.4437    -0.5369 C.3     
  28 C28            5.0241     0.1412     1.6231 C.3     
  29 F29           -9.6621     4.1064    -3.1785 F       
  30 H30           -1.2072    -1.8118     0.1877 H       
  31 H31           -3.3350    -0.6146     0.2080 H       
  32 H32           -1.2780     3.1470     0.0566 H       
  33 H33           -4.2903     2.0562    -1.9471 H       
  34 H34           -5.3307     1.0450    -0.9006 H       
  35 H35           -5.6037     4.4387     0.9297 H       
  36 H36           -6.3144     2.8293     1.2539 H       
  37 H37           -3.6432     3.0750     2.0036 H       
  38 H38           -7.0589     1.0744     0.1507 H       
  39 H39           -9.3806     0.5296    -0.4562 H       
  40 H40          -10.6125     1.9629    -2.0317 H       
  41 H41           -7.2040     4.5054    -2.3981 H       
  42 H42            3.3631     3.2262    -0.3935 H       
  43 H43            3.6660     2.5662     1.2225 H       
  44 H44            4.7862     1.6768    -1.4267 H       
  45 H45            5.6496     2.1767     0.0389 H       
  46 H46            3.6546    -1.5481     0.2597 H       
  47 H47            3.7174    -0.8385    -1.3605 H       
  48 H48            7.0027     0.0965    -0.2160 H       
  49 H49            6.1879    -1.4860    -0.2270 H       
  50 H50            6.0276    -0.3927    -1.6225 H       
  51 H51            4.1584     0.6123     2.0887 H       
  52 H52            5.0919    -0.8967     1.9489 H       
  53 H53            5.9289     0.6738     1.9160 H       
@<TRIPOS>BOND
   1    1    2 ar
   2    1    7 1
   3    1    6 ar
   4    2    3 ar
   5    2   10 1
   6    3    4 ar
   7    3   30 1
   8    4    5 ar
   9    4   31 1
  10    5    6 ar
  11    5   12 1
  12    6   32 1
  13    7    8 2
  14    8    9 1
  15    8   23 1
  16    9   10 am
  17    9   26 1
  18   10   11 2
  19   12   13 1
  20   12   16 2
  21   13   14 1
  22   13   33 1
  23   13   34 1
  24   14   15 1
  25   14   17 1
  26   15   16 1
  27   15   35 1
  28   15   36 1
  29   16   37 1
  30   17   18 ar
  31   17   22 ar
  32   18   19 ar
  33   18   38 1
  34   19   20 ar
  35   19   39 1
  36   20   21 ar
  37   20   40 1
  38   21   22 ar
  39   21   29 1
  40   22   41 1
  41   23   24 1
  42   23   42 1
  43   23   43 1
  44   24   25 1
  45   24   44 1
  46   24   45 1
  47   25   26 1
  48   25   27 1
  49   25   28 1
  50   26   46 1
  51   26   47 1
  52   27   48 1
  53   27   49 1
  54   27   50 1
  55   28   51 1
  56   28   52 1
  57   28   53 1

#	End of record

