#	Name: ASD07930543
#	Creating user name:	WinNT
#	Creation time:	15. 06. 2019 21:12

#	Modifying user name:	WinNT
#	Modification time:	15. 06. 2019 21:12

#	Program:	/corina/corina34_cracker 3.40 0067  02.08.2006

@<TRIPOS>MOLECULE
ASD07930543
  51   53    0    0    0
SMALL
NO_CHARGES


@<TRIPOS>ATOM
   1 C1            -0.0342     1.4581     0.0423 C.3     
   2 N2             0.7954    -0.4134    -2.1303 N.2     
   3 N3            -0.8903    -1.7835    -1.2685 N.pl3   
   4 C4            -0.9149    -2.8271    -0.2383 C.3     
   5 C5            -1.2300    -2.1885     1.1215 C.3     
   6 S6             0.0062    -0.8913     1.4434 S.o2    
   7 N7            -0.0140    -0.0067     0.0314 N.am    
   8 C8            -0.0112    -0.7260    -1.1552 C.2     
   9 C9             0.4501    -3.5154    -0.1755 C.3     
  10 C10           -1.9764    -3.8423    -0.5755 C.ar    
  11 C11           -2.8069    -3.6377    -1.6601 C.ar    
  12 C12           -3.7851    -4.5731    -1.9718 C.ar    
  13 C13           -3.9269    -5.7131    -1.1921 C.ar    
  14 C14           -3.0936    -5.9149    -0.1067 C.ar    
  15 C15           -2.1144    -4.9815     0.1987 C.ar    
  16 O16           -0.4575     0.0117     2.4377 O.2     
  17 O17            1.3141    -1.4441     1.5003 O.2     
  18 F18           -1.3006    -5.1796     1.2588 F       
  19 N19           -4.6272    -4.3666    -3.0701 N.am    
  20 C20           -5.0471    -5.4160    -3.8041 C.2     
  21 O21           -4.6183    -6.5298    -3.5730 O.2     
  22 C22           -6.0296    -5.2126    -4.8907 C.ar    
  23 C23           -6.4673    -6.3007    -5.6545 C.ar    
  24 C24           -7.3880    -6.0597    -6.6600 C.ar    
  25 C25           -7.8223    -4.7497    -6.8502 C.ar    
  26 N26           -7.3534    -3.7777    -6.0781 N.ar    
  27 N27           -6.5037    -3.9979    -5.1416 N.ar    
  28 F28           -3.2303    -7.0237     0.6530 F       
  29 O29           -8.7226    -4.4683    -7.8233 O.3     
  30 C30           -9.1232    -3.1036    -7.9615 C.3     
  31 C31          -10.1356    -2.9822    -9.1022 C.3     
  32 H32            0.9884     1.8356     0.0392 H       
  33 H33           -0.5581     1.8208    -0.8420 H       
  34 H34           -0.5478     1.8077     0.9379 H       
  35 H35            1.4071     0.3330    -2.0332 H       
  36 H36           -1.4883    -1.8387    -2.0303 H       
  37 H37           -2.2269    -1.7484     1.0986 H       
  38 H38           -1.1799    -2.9460     1.9036 H       
  39 H39            1.2166    -2.7805     0.0704 H       
  40 H40            0.4311    -4.2908     0.5903 H       
  41 H41            0.6749    -3.9652    -1.1426 H       
  42 H42           -2.6958    -2.7503    -2.2655 H       
  43 H43           -4.6872    -6.4415    -1.4326 H       
  44 H44           -4.9088    -3.4681    -3.3032 H       
  45 H45           -6.0979    -7.2978    -5.4655 H       
  46 H46           -7.7583    -6.8635    -7.2790 H       
  47 H47           -9.5802    -2.7632    -7.0323 H       
  48 H48           -8.2504    -2.4894    -8.1834 H       
  49 H49          -10.4411    -1.9412    -9.2076 H       
  50 H50           -9.6785    -3.3226   -10.0314 H       
  51 H51          -11.0083    -3.5964    -8.8803 H       
@<TRIPOS>BOND
   1    1    7 1
   2    1   32 1
   3    1   33 1
   4    1   34 1
   5    2    8 2
   6    2   35 1
   7    3    4 1
   8    3    8 1
   9    3   36 1
  10    4    5 1
  11    4    9 1
  12    4   10 1
  13    5    6 1
  14    5   37 1
  15    5   38 1
  16    6    7 am
  17    6   16 2
  18    6   17 2
  19    7    8 1
  20    9   39 1
  21    9   40 1
  22    9   41 1
  23   10   11 ar
  24   10   15 ar
  25   11   12 ar
  26   11   42 1
  27   12   13 ar
  28   12   19 1
  29   13   14 ar
  30   13   43 1
  31   14   15 ar
  32   14   28 1
  33   15   18 1
  34   19   20 am
  35   19   44 1
  36   20   21 2
  37   20   22 1
  38   22   23 ar
  39   22   27 ar
  40   23   24 ar
  41   23   45 1
  42   24   25 ar
  43   24   46 1
  44   25   26 ar
  45   25   29 1
  46   26   27 ar
  47   29   30 1
  48   30   31 1
  49   30   47 1
  50   30   48 1
  51   31   49 1
  52   31   50 1
  53   31   51 1

#	End of record

