#	Name: ASD01918586
#	Creating user name:	WinNT
#	Creation time:	15. 06. 2019 20:11

#	Modifying user name:	WinNT
#	Modification time:	15. 06. 2019 20:11

#	Program:	/corina/corina34_cracker 3.40 0067  02.08.2006

@<TRIPOS>MOLECULE
ASD01918586
  39   41    0    0    0
SMALL
NO_CHARGES


@<TRIPOS>ATOM
   1 C1             0.2012     1.7680    -0.6677 C.3     
   2 C2             0.3402     0.2709    -0.5650 C.ar    
   3 C3             0.0654    -0.5162    -1.6687 C.ar    
   4 C4             0.1954    -1.8987    -1.5687 C.ar    
   5 O5            -0.0659    -2.7004    -2.6326 O.3     
   6 C6             0.0792    -4.1082    -2.4351 C.3     
   7 C7            -0.7641    -4.8652    -3.4758 C.3     
   8 C8            -0.3158    -6.3496    -3.4260 C.3     
   9 S9             1.5082    -6.1997    -3.2980 S.3     
  10 C10            1.5601    -4.5052    -2.6064 C.3     
  11 C11            0.6002    -2.4388    -0.3511 C.ar    
  12 C12            0.8583    -1.5818     0.7141 C.ar    
  13 N13            0.7264    -0.2679     0.5719 N.ar    
  14 C14            1.2900    -2.1395     2.0168 C.2     
  15 O15            1.4173    -3.3404     2.1515 O.2     
  16 N16            1.5417    -1.3148     3.0527 N.am    
  17 C17            1.8398    -1.8428     4.3069 C.ar    
  18 C18            1.9825    -0.9913     5.3965 C.ar    
  19 C19            2.2782    -1.5291     6.6369 C.ar    
  20 C20            2.4215    -2.9055     6.7448 C.ar    
  21 C21            2.2660    -3.6918     5.6200 C.ar    
  22 N22            1.9792    -3.1514     4.4514 N.ar    
  23 H23            1.1482     2.1994    -0.9921 H       
  24 H24           -0.5762     2.0119    -1.3918 H       
  25 H25           -0.0689     2.1754     0.3065 H       
  26 H26           -0.2469    -0.0631    -2.5980 H       
  27 H27           -0.2571    -4.3735    -1.4327 H       
  28 H28           -1.8221    -4.7872    -3.2258 H       
  29 H29           -0.5848    -4.4552    -4.4697 H       
  30 H30           -0.7266    -6.8498    -2.5491 H       
  31 H31           -0.5991    -6.8714    -4.3401 H       
  32 H32            2.0575    -3.8270    -3.2997 H       
  33 H33            2.0678    -4.5038    -1.6419 H       
  34 H34            0.7119    -3.5068    -0.2350 H       
  35 H35            1.5153    -0.3536     2.9249 H       
  36 H36            1.8645     0.0755     5.2766 H       
  37 H37            2.3952    -0.8923     7.5013 H       
  38 H38            2.6525    -3.3569     7.6984 H       
  39 H39            2.3769    -4.7632     5.6991 H       
@<TRIPOS>BOND
   1    1    2 1
   2    1   23 1
   3    1   24 1
   4    1   25 1
   5    2   13 ar
   6    2    3 ar
   7    3    4 ar
   8    3   26 1
   9    4    5 1
  10    4   11 ar
  11    5    6 1
  12    6   10 1
  13    6    7 1
  14    6   27 1
  15    7    8 1
  16    7   28 1
  17    7   29 1
  18    8    9 1
  19    8   30 1
  20    8   31 1
  21    9   10 1
  22   10   32 1
  23   10   33 1
  24   11   12 ar
  25   11   34 1
  26   12   13 ar
  27   12   14 1
  28   14   15 2
  29   14   16 am
  30   16   17 1
  31   16   35 1
  32   17   22 ar
  33   17   18 ar
  34   18   19 ar
  35   18   36 1
  36   19   20 ar
  37   19   37 1
  38   20   21 ar
  39   20   38 1
  40   21   22 ar
  41   21   39 1

#	End of record

