#	Name: ASD01884640
#	Creating user name:	WinNT
#	Creation time:	15. 06. 2019 19:48

#	Modifying user name:	WinNT
#	Modification time:	15. 06. 2019 19:48

#	Program:	/corina/corina34_cracker 3.40 0067  02.08.2006

@<TRIPOS>MOLECULE
ASD01884640
  68   71    0    0    0
SMALL
NO_CHARGES


@<TRIPOS>ATOM
   1 C1            -0.1227     1.9978     0.4634 C.2     
   2 C2            -0.3342     0.6215     0.4425 C.2     
   3 C3            -1.6239     0.1326     0.6550 C.2     
   4 C4            -2.6502     0.9919     0.8774 C.2     
   5 N5            -2.4519     2.3323     0.8992 N.am    
   6 C6            -1.2267     2.8564     0.7059 C.2     
   7 O7            -1.0679     4.0648     0.7293 O.2     
   8 C8            -3.5877     3.2251     1.1423 C.3     
   9 C9             1.1866     2.5371     0.2500 C.1     
  10 N10            2.2252     2.9649     0.0807 N.1     
  11 C11            0.8117    -0.3251     0.1937 C.3     
  12 N12            1.3548    -0.7849     1.4788 N.3     
  13 C13            2.3107    -1.8839     1.2836 C.3     
  14 C14            2.9117    -2.2798     2.6343 C.3     
  15 N15            1.8332    -2.6798     3.5490 N.3     
  16 C16            0.8773    -1.5808     3.7442 C.3     
  17 C17            0.2764    -1.1850     2.3934 C.3     
  18 N18            2.3708    -3.1350     4.8210 N.3     
  19 C19           -3.7273     3.4751     2.6453 C.3     
  20 O20           -2.5807     4.1844     3.1188 O.3     
  21 C21           -2.5464     4.4880     4.4430 C.ar    
  22 C22           -1.4630     5.1755     4.9704 C.ar    
  23 C23           -1.4304     5.4829     6.3168 C.ar    
  24 C24           -2.4765     5.1058     7.1386 C.ar    
  25 C25           -3.5572     4.4201     6.6156 C.ar    
  26 C26           -3.5973     4.1158     5.2686 C.ar    
  27 C27            1.3097    -3.6872     5.6736 C.3     
  28 C28            3.4462    -4.1148     4.6176 C.3     
  29 C29            0.7114    -4.9001     5.0088 C.ar    
  30 C30            1.2147    -6.1576     5.2836 C.ar    
  31 C31            0.6658    -7.2704     4.6737 C.ar    
  32 C32           -0.3866    -7.1253     3.7895 C.ar    
  33 C33           -0.8907    -5.8674     3.5153 C.ar    
  34 C34           -0.3448    -4.7554     4.1284 C.ar    
  35 C35           -2.0378    -5.7091     2.5509 C.3     
  36 F36           -2.4172    -6.9658     2.0672 F       
  37 F37           -3.1211    -5.1160     3.2081 F       
  38 F38           -1.6402    -4.8986     1.4822 F       
  39 H39           -1.8055    -0.9319     0.6421 H       
  40 H40           -3.6435     0.6003     1.0397 H       
  41 H41           -3.4210     4.1729     0.6304 H       
  42 H42           -4.5000     2.7636     0.7645 H       
  43 H43            0.4571    -1.1824    -0.3785 H       
  44 H44            1.5921     0.1888    -0.3676 H       
  45 H45            1.7958    -2.7409     0.8494 H       
  46 H46            3.1062    -1.5592     0.6128 H       
  47 H47            3.5993    -3.1141     2.4959 H       
  48 H48            3.4497    -1.4307     3.0558 H       
  49 H49            0.0819    -1.9056     4.4150 H       
  50 H50            1.3923    -0.7238     4.1783 H       
  51 H51           -0.4113    -0.3507     2.5318 H       
  52 H52           -0.2616    -2.0340     1.9719 H       
  53 H53           -4.6236     4.0661     2.8336 H       
  54 H54           -3.8051     2.5210     3.1666 H       
  55 H55           -0.6455     5.4699     4.3289 H       
  56 H56           -0.5871     6.0178     6.7279 H       
  57 H57           -2.4491     5.3470     8.1910 H       
  58 H58           -4.3727     4.1261     7.2597 H       
  59 H59           -4.4417     3.5803     4.8605 H       
  60 H60            1.7299    -3.9718     6.6382 H       
  61 H61            0.5349    -2.9351     5.8225 H       
  62 H62            4.2507    -3.6572     4.0419 H       
  63 H63            3.8304    -4.4386     5.5849 H       
  64 H64            3.0555    -4.9758     4.0752 H       
  65 H65            2.0370    -6.2710     5.9745 H       
  66 H66            1.0596    -8.2530     4.8878 H       
  67 H67           -0.8149    -7.9944     3.3125 H       
  68 H68           -0.7386    -3.7729     3.9142 H       
@<TRIPOS>BOND
   1    1    2 2
   2    1    9 1
   3    1    6 1
   4    2    3 1
   5    2   11 1
   6    3    4 2
   7    3   39 1
   8    4    5 1
   9    4   40 1
  10    5    8 1
  11    5    6 am
  12    6    7 2
  13    8   19 1
  14    8   41 1
  15    8   42 1
  16    9   10 3
  17   11   12 1
  18   11   43 1
  19   11   44 1
  20   12   13 1
  21   12   17 1
  22   13   14 1
  23   13   45 1
  24   13   46 1
  25   14   15 1
  26   14   47 1
  27   14   48 1
  28   15   16 1
  29   15   18 1
  30   16   17 1
  31   16   49 1
  32   16   50 1
  33   17   51 1
  34   17   52 1
  35   18   27 1
  36   18   28 1
  37   19   20 1
  38   19   53 1
  39   19   54 1
  40   20   21 1
  41   21   22 ar
  42   21   26 ar
  43   22   23 ar
  44   22   55 1
  45   23   24 ar
  46   23   56 1
  47   24   25 ar
  48   24   57 1
  49   25   26 ar
  50   25   58 1
  51   26   59 1
  52   27   29 1
  53   27   60 1
  54   27   61 1
  55   28   62 1
  56   28   63 1
  57   28   64 1
  58   29   30 ar
  59   29   34 ar
  60   30   31 ar
  61   30   65 1
  62   31   32 ar
  63   31   66 1
  64   32   33 ar
  65   32   67 1
  66   33   35 1
  67   33   34 ar
  68   34   68 1
  69   35   36 1
  70   35   37 1
  71   35   38 1

#	End of record

