#	Name: ASD07300870
#	Creating user name:	WinNT
#	Creation time:	15. 06. 2019 21:10

#	Modifying user name:	WinNT
#	Modification time:	15. 06. 2019 21:10

#	Program:	/corina/corina34_cracker 3.40 0067  02.08.2006

@<TRIPOS>MOLECULE
ASD07300870
  41   44    0    0    0
SMALL
NO_CHARGES


@<TRIPOS>ATOM
   1 N1             0.5022     1.7705    -0.5612 N.am    
   2 C2             0.3748     0.4289    -0.4024 C.2     
   3 N3             1.3937    -0.3768    -0.3290 N.2     
   4 C4             2.6567     0.0693    -0.4067 C.2     
   5 C5             2.8885     1.4441    -0.5719 C.2     
   6 C6             1.7299     2.3335    -0.6518 C.2     
   7 N7             3.8791    -0.5277    -0.3618 N.pl3   
   8 N8             4.8577     0.4651    -0.4975 N.2     
   9 C9             4.2828     1.6300    -0.6219 C.2     
  10 O10            1.8648     3.5358    -0.7953 O.2     
  11 C11            4.1175    -1.8992    -0.2060 C.ar    
  12 C12            3.4181    -2.8266    -0.9666 C.ar    
  13 N13            3.6396    -4.1180    -0.8229 N.ar    
  14 C14            5.2643    -3.7178     0.8278 C.ar    
  15 C15            5.0638    -2.3525     0.7101 C.ar    
  16 C16           -1.0112    -0.1548    -0.3062 C.3     
  17 C17           -1.0892    -1.6303    -0.7324 C.3     
  18 C18           -2.0580    -1.8373     0.4438 C.3     
  19 C19           -1.3844    -0.6257     1.1094 C.3     
  20 C20           -1.7263    -1.8358    -2.0826 C.2     
  21 N21           -1.4269    -2.9518    -2.8186 N.pl3   
  22 C22            4.5247    -4.5795     0.0387 C.ar    
  23 N23           -2.5556    -0.9586    -2.5464 N.2     
  24 C24            5.8500    -1.3812     1.5524 C.3     
  25 H25           -0.2898     2.3280    -0.6141 H       
  26 H26            4.7904     2.5756    -0.7423 H       
  27 H27            2.6850    -2.4864    -1.6830 H       
  28 H28            5.9899    -4.1050     1.5277 H       
  29 H29           -1.7690     0.4749    -0.7722 H       
  30 H30           -0.1470    -2.1672    -0.6217 H       
  31 H31           -3.1029    -1.6678     0.1839 H       
  32 H32           -1.9005    -2.7734     0.9796 H       
  33 H33           -0.5229    -0.8878     1.7237 H       
  34 H34           -2.0835     0.0368     1.6198 H       
  35 H35           -0.8049    -3.6098    -2.4706 H       
  36 H36           -1.8370    -3.0841    -3.6876 H       
  37 H37            4.6767    -5.6451     0.1268 H       
  38 H38           -2.9657    -1.0908    -3.4155 H       
  39 H39            6.7148    -1.0295     0.9897 H       
  40 H40            5.2177    -0.5329     1.8145 H       
  41 H41            6.1863    -1.8786     2.4621 H       
@<TRIPOS>BOND
   1    1    2 1
   2    1    6 am
   3    1   25 1
   4    2    3 2
   5    2   16 1
   6    3    4 1
   7    4    5 2
   8    4    7 1
   9    5    6 1
  10    5    9 1
  11    6   10 2
  12    7    8 1
  13    7   11 1
  14    8    9 2
  15    9   26 1
  16   11   12 ar
  17   11   15 ar
  18   12   13 ar
  19   12   27 1
  20   13   22 ar
  21   14   15 ar
  22   14   22 ar
  23   14   28 1
  24   15   24 1
  25   16   17 1
  26   16   19 1
  27   16   29 1
  28   17   18 1
  29   17   20 1
  30   17   30 1
  31   18   19 1
  32   18   31 1
  33   18   32 1
  34   19   33 1
  35   19   34 1
  36   20   21 1
  37   20   23 2
  38   21   35 1
  39   21   36 1
  40   22   37 1
  41   23   38 1
  42   24   39 1
  43   24   40 1
  44   24   41 1

#	End of record

