#	Name: ASD01914768
#	Creating user name:	WinNT
#	Creation time:	15. 06. 2019 20:04

#	Modifying user name:	WinNT
#	Modification time:	15. 06. 2019 20:04

#	Program:	/corina/corina34_cracker 3.40 0067  02.08.2006

@<TRIPOS>MOLECULE
ASD01914768
  45   47    0    0    0
SMALL
NO_CHARGES


@<TRIPOS>ATOM
   1 C1             0.6192     1.2667    -0.9664 C.ar    
   2 C2             0.6093    -0.0910    -0.6285 C.ar    
   3 C3             1.6415    -0.9156    -1.1092 C.ar    
   4 N4             2.6026    -0.4112    -1.8667 N.ar    
   5 C5             2.6294     0.8659    -2.1961 C.ar    
   6 C6             1.6488     1.7390    -1.7619 C.ar    
   7 N7             1.6531    -2.2619    -0.7883 N.3     
   8 C8             0.3990    -2.9099    -1.1923 C.3     
   9 C9             2.8019    -2.9422    -1.4084 C.3     
  10 C10            2.9496    -4.3264    -0.7717 C.3     
  11 C11            1.6199    -5.0278    -0.7698 C.2     
  12 C12            0.4794    -4.3907    -0.9552 C.2     
  13 C13            1.5890    -6.4820    -0.5527 C.2     
  14 N14            0.4292    -7.1573    -0.6758 N.am    
  15 O15            2.6103    -7.0753    -0.2620 O.2     
  16 C16            0.4281    -8.5559    -0.6511 C.ar    
  17 C17           -0.6088    -9.2615    -1.2477 C.ar    
  18 C18           -0.6071   -10.6423    -1.2223 C.ar    
  19 C19            0.4263   -11.3229    -0.6026 C.ar    
  20 C20            1.4607   -10.6224    -0.0073 C.ar    
  21 C21            1.4669    -9.2416    -0.0349 C.ar    
  22 Cl22           0.4247   -13.0586    -0.5715 Cl      
  23 C23            3.9587    -5.1506    -1.5738 C.3     
  24 C24            5.3620    -4.5749    -1.3727 C.3     
  25 C25           -0.4327    -0.6307     0.1922 C.1     
  26 N26           -1.2593    -1.0588     0.8433 N.1     
  27 H27           -0.1598     1.9291    -0.6188 H       
  28 H28            3.4321     1.2364    -2.8164 H       
  29 H29            1.6863     2.7816    -2.0411 H       
  30 H30           -0.4250    -2.4955    -0.6115 H       
  31 H31            0.2210    -2.7231    -2.2513 H       
  32 H32            2.6300    -3.0483    -2.4795 H       
  33 H33            3.7080    -2.3614    -1.2360 H       
  34 H34            3.3040    -4.2182     0.2534 H       
  35 H35           -0.4382    -4.9600    -0.9350 H       
  36 H36           -0.4049    -6.6735    -0.7816 H       
  37 H37           -1.4158    -8.7308    -1.7309 H       
  38 H38           -1.4132   -11.1914    -1.6861 H       
  39 H39            2.2657   -11.1560     0.4759 H       
  40 H40            2.2744    -8.6954     0.4299 H       
  41 H41            3.9377    -6.1849    -1.2306 H       
  42 H42            3.6990    -5.1134    -2.6318 H       
  43 H43            5.6446    -4.6647    -0.3238 H       
  44 H44            6.0725    -5.1259    -1.9889 H       
  45 H45            5.3685    -3.5241    -1.6621 H       
@<TRIPOS>BOND
   1    1    2 ar
   2    1    6 ar
   3    1   27 1
   4    2    3 ar
   5    2   25 1
   6    3    4 ar
   7    3    7 1
   8    4    5 ar
   9    5    6 ar
  10    5   28 1
  11    6   29 1
  12    7    8 1
  13    7    9 1
  14    8   12 1
  15    8   30 1
  16    8   31 1
  17    9   10 1
  18    9   32 1
  19    9   33 1
  20   10   11 1
  21   10   23 1
  22   10   34 1
  23   11   12 2
  24   11   13 1
  25   12   35 1
  26   13   14 am
  27   13   15 2
  28   14   16 1
  29   14   36 1
  30   16   17 ar
  31   16   21 ar
  32   17   18 ar
  33   17   37 1
  34   18   19 ar
  35   18   38 1
  36   19   20 ar
  37   19   22 1
  38   20   21 ar
  39   20   39 1
  40   21   40 1
  41   23   24 1
  42   23   41 1
  43   23   42 1
  44   24   43 1
  45   24   44 1
  46   24   45 1
  47   25   26 3

#	End of record

