#	Name: ASD00071023
#	Creating user name:	WinNT
#	Creation time:	15. 06. 2019 18:30

#	Modifying user name:	WinNT
#	Modification time:	15. 06. 2019 18:30

#	Program:	/corina/corina34_cracker 3.40 0067  02.08.2006

@<TRIPOS>MOLECULE
ASD00071023
  36   38    0    0    0
SMALL
NO_CHARGES


@<TRIPOS>ATOM
   1 N1             2.6311     1.0880    -0.0585 N.ar    
   2 C2             2.4059    -0.1915     0.1587 C.ar    
   3 C3             1.1042    -0.7124     0.1903 C.ar    
   4 C4             0.0381     0.1125    -0.0061 C.ar    
   5 C5             0.2858     1.4811    -0.2377 C.ar    
   6 C6            -0.7663     2.3857    -0.4472 C.ar    
   7 C7            -0.4902     3.7013    -0.6675 C.ar    
   8 C8             0.8252     4.1614    -0.6876 C.ar    
   9 C9             1.8701     3.3095    -0.4877 C.ar    
  10 C10            1.6236     1.9459    -0.2580 C.ar    
  11 N11            3.4814    -1.0436     0.3604 N.pl3   
  12 C12            0.8853    -2.1822     0.4407 C.3     
  13 C13            0.8586    -2.4404     1.9252 C.ar    
  14 C14           -0.3032    -2.2128     2.6488 C.ar    
  15 C15           -0.3246    -2.4514     4.0151 C.ar    
  16 C16            0.8106    -2.9149     4.6520 C.ar    
  17 C17            1.9670    -3.1404     3.9289 C.ar    
  18 C18            1.9890    -2.9092     2.5656 C.ar    
  19 O19           -1.4183    -1.7565     2.0201 O.3     
  20 C20           -2.5778    -1.5447     2.8279 C.3     
  21 Cl21           1.1375     5.8453    -0.9720 Cl      
  22 H22           -0.9709    -0.2720     0.0146 H       
  23 H23           -1.7896     2.0407    -0.4343 H       
  24 H24           -1.3008     4.3964    -0.8289 H       
  25 H25            2.8839     3.6814    -0.5066 H       
  26 H26            4.3778    -0.6822     0.4426 H       
  27 H27            3.3371    -2.0010     0.4193 H       
  28 H28           -0.0643    -2.4881     0.0016 H       
  29 H29            1.6958    -2.7527    -0.0128 H       
  30 H30           -1.2276    -2.2747     4.5805 H       
  31 H31            0.7945    -3.1008     5.7158 H       
  32 H32            2.8534    -3.5021     4.4287 H       
  33 H33            2.8923    -3.0907     2.0021 H       
  34 H34           -2.8700    -2.4840     3.2974 H       
  35 H35           -2.3539    -0.8074     3.5989 H       
  36 H36           -3.3941    -1.1812     2.2037 H       
@<TRIPOS>BOND
   1    1    2 ar
   2    1   10 ar
   3    2    3 ar
   4    2   11 1
   5    3    4 ar
   6    3   12 1
   7    4    5 ar
   8    4   22 1
   9    5    6 ar
  10    5   10 ar
  11    6    7 ar
  12    6   23 1
  13    7    8 ar
  14    7   24 1
  15    8    9 ar
  16    8   21 1
  17    9   10 ar
  18    9   25 1
  19   11   26 1
  20   11   27 1
  21   12   13 1
  22   12   28 1
  23   12   29 1
  24   13   14 ar
  25   13   18 ar
  26   14   15 ar
  27   14   19 1
  28   15   16 ar
  29   15   30 1
  30   16   17 ar
  31   16   31 1
  32   17   18 ar
  33   17   32 1
  34   18   33 1
  35   19   20 1
  36   20   34 1
  37   20   35 1
  38   20   36 1

#	End of record

