#	Name: ASD00843530
#	Creating user name:	WinNT
#	Creation time:	15. 06. 2019 18:47

#	Modifying user name:	WinNT
#	Modification time:	15. 06. 2019 18:47

#	Program:	/corina/corina34_cracker 3.40 0067  02.08.2006

@<TRIPOS>MOLECULE
ASD00843530
  91   96    0    0    0
SMALL
NO_CHARGES


@<TRIPOS>ATOM
   1 F1             5.5731    -2.3860    -2.0716 F       
   2 N2             0.7511     1.0433    -0.2760 N.ar    
   3 C3             0.9520    -0.2363    -0.5432 C.ar    
   4 C4             0.8601    -1.1919     0.4608 C.ar    
   5 C5             0.5548    -0.7882     1.7487 C.ar    
   6 C6             0.3512     0.5641     1.9879 C.ar    
   7 C7             0.4585     1.4586     0.9419 C.ar    
   8 C8             1.0893    -2.6489     0.1515 C.3     
   9 C9             0.7956    -3.5016     1.3672 C.2     
  10 C10            0.2239    -3.0868    -1.0318 C.3     
  11 C11           -1.2200    -2.7647    -0.7446 C.2     
  12 N12           -2.1821    -3.1606    -1.6014 N.am    
  13 O13           -1.5162    -2.1493     0.2577 O.2     
  14 C14           -3.5801    -2.7584    -1.3949 C.3     
  15 C15           -4.4585    -4.0134    -1.3892 C.3     
  16 C16           -4.2161    -4.8067    -2.6753 C.3     
  17 C17           -2.7506    -5.2432    -2.7388 C.3     
  18 C18           -1.8519    -3.9975    -2.7629 C.3     
  19 N19           -5.0813    -5.9938    -2.6884 N.3     
  20 C20           -4.9630    -6.7177    -3.9619 C.3     
  21 C21           -5.8163    -7.9869    -3.9053 C.3     
  22 N22           -7.2147    -7.6224    -3.6380 N.3     
  23 C23           -7.3330    -6.8986    -2.3646 C.3     
  24 C24           -6.4796    -5.6293    -2.4211 C.3     
  25 C25           -8.0799    -8.8095    -3.6512 C.3     
  26 O26           -0.2700    -3.5981     1.9385 O.2     
  27 N27            1.9359    -4.1318     1.6948 N.am    
  28 C28            2.5516    -2.9059    -0.1344 C.ar    
  29 C29            2.9866    -3.8049     0.8340 C.ar    
  30 C30            3.4101    -2.4321    -1.1018 C.ar    
  31 C31            4.7297    -2.8488    -1.1231 C.ar    
  32 C32            5.1848    -3.7523    -0.1573 C.ar    
  33 C33            4.3103    -4.2284     0.8191 C.ar    
  34 C34            1.7039    -6.7896     2.3705 C.ar    
  35 C35            2.7122    -7.5905     1.8669 C.ar    
  36 C36            0.4023    -7.2546     2.4085 C.ar    
  37 C37            0.1062    -8.5211     1.9431 C.ar    
  38 C38            1.1161    -9.3266     1.4372 C.ar    
  39 C39            2.4212    -8.8576     1.3998 C.ar    
  40 O40            0.8274   -10.5731     0.9792 O.3     
  41 H41            3.7281    -7.2250     1.8383 H       
  42 C42            1.9170   -11.3465     0.4725 C.3     
  43 C43           -9.4681    -8.4346    -3.1286 C.3     
  44 C44            6.5485    -4.1890    -0.1716 C.1     
  45 N45            7.6303    -4.5355    -0.1830 N.1     
  46 S46            2.0795    -5.1764     2.9716 S.o2    
  47 O47            3.4556    -5.1905     3.3258 O.2     
  48 O48            1.0452    -4.8378     3.8853 O.2     
  49 O49            1.2502    -0.6193    -1.8102 O.3     
  50 C50            1.2791     0.4038    -2.8074 C.3     
  51 C51            1.7315    -0.1959    -4.1403 C.3     
  52 F52            2.9729    -0.8191    -3.9739 F       
  53 F53            0.7909    -1.1377    -4.5711 F       
  54 H54            0.4763    -1.5086     2.5494 H       
  55 H55            0.1110     0.9125     2.9815 H       
  56 H56            0.3014     2.5117     1.1227 H       
  57 H57            0.5423    -2.5579    -1.9302 H       
  58 H58            0.3333    -4.1605    -1.1844 H       
  59 H59           -3.6745    -2.2419    -0.4397 H       
  60 H60           -3.8931    -2.0969    -2.2028 H       
  61 H61           -4.2051    -4.6309    -0.5275 H       
  62 H62           -5.5076    -3.7229    -1.3333 H       
  63 H63           -4.4461    -4.1804    -3.5372 H       
  64 H64           -2.5132    -5.8492    -1.8644 H       
  65 H65           -2.5841    -5.8281    -3.6434 H       
  66 H66           -2.0254    -3.4396    -3.6831 H       
  67 H67           -0.8062    -4.3002    -2.7083 H       
  68 H68           -5.3110    -6.0814    -4.7756 H       
  69 H69           -3.9206    -6.9876    -4.1312 H       
  70 H70           -5.7530    -8.5105    -4.8593 H       
  71 H71           -5.4510    -8.6356    -3.1092 H       
  72 H72           -8.3754    -6.6287    -2.1952 H       
  73 H73           -6.9849    -7.5349    -1.5509 H       
  74 H74           -6.5430    -5.1058    -1.4672 H       
  75 H75           -6.8449    -4.9807    -3.2173 H       
  76 H76           -8.1648    -9.1859    -4.6706 H       
  77 H77           -7.6479    -9.5811    -3.0138 H       
  78 H78            3.0528    -1.7346    -1.8450 H       
  79 H79            4.6621    -4.9261     1.5647 H       
  80 H80           -0.3834    -6.6272     2.8027 H       
  81 H81           -0.9105    -8.8840     1.9733 H       
  82 H82            3.2092    -9.4829     1.0068 H       
  83 H83            2.3735   -10.8240    -0.3682 H       
  84 H84            2.6588   -11.4879     1.2585 H       
  85 H85            1.5498   -12.3177     0.1406 H       
  86 H86           -9.9001    -7.6631    -3.7659 H       
  87 H87          -10.1101    -9.3154    -3.1383 H       
  88 H88           -9.3831    -8.0582    -2.1092 H       
  89 H89            0.2821     0.8295    -2.9203 H       
  90 H90            1.9760     1.1857    -2.5056 H       
  91 H91            1.8194     0.5962    -4.8839 H       
@<TRIPOS>BOND
   1    1   31 1
   2    2    3 ar
   3    2    7 ar
   4    3    4 ar
   5    3   49 1
   6    4    5 ar
   7    4    8 1
   8    5    6 ar
   9    5   54 1
  10    6    7 ar
  11    6   55 1
  12    7   56 1
  13    8    9 1
  14    8   10 1
  15    8   28 1
  16    9   26 2
  17    9   27 am
  18   10   11 1
  19   10   57 1
  20   10   58 1
  21   11   12 am
  22   11   13 2
  23   12   14 1
  24   12   18 1
  25   14   15 1
  26   14   59 1
  27   14   60 1
  28   15   16 1
  29   15   61 1
  30   15   62 1
  31   16   17 1
  32   16   19 1
  33   16   63 1
  34   17   18 1
  35   17   64 1
  36   17   65 1
  37   18   66 1
  38   18   67 1
  39   19   20 1
  40   19   24 1
  41   20   21 1
  42   20   68 1
  43   20   69 1
  44   21   22 1
  45   21   70 1
  46   21   71 1
  47   22   23 1
  48   22   25 1
  49   23   24 1
  50   23   72 1
  51   23   73 1
  52   24   74 1
  53   24   75 1
  54   25   43 1
  55   25   76 1
  56   25   77 1
  57   27   46 am
  58   27   29 1
  59   28   29 ar
  60   28   30 ar
  61   29   33 ar
  62   30   31 ar
  63   30   78 1
  64   31   32 ar
  65   32   33 ar
  66   32   44 1
  67   33   79 1
  68   34   35 ar
  69   34   36 ar
  70   34   46 1
  71   35   41 1
  72   35   39 ar
  73   36   37 ar
  74   36   80 1
  75   37   38 ar
  76   37   81 1
  77   38   39 ar
  78   38   40 1
  79   39   82 1
  80   40   42 1
  81   42   83 1
  82   42   84 1
  83   42   85 1
  84   43   86 1
  85   43   87 1
  86   43   88 1
  87   44   45 3
  88   46   47 2
  89   46   48 2
  90   49   50 1
  91   50   51 1
  92   50   89 1
  93   50   90 1
  94   51   52 1
  95   51   53 1
  96   51   91 1

#	End of record

