#	Name: ASD01885303
#	Creating user name:	WinNT
#	Creation time:	15. 06. 2019 19:49

#	Modifying user name:	WinNT
#	Modification time:	15. 06. 2019 19:49

#	Program:	/corina/corina34_cracker 3.40 0067  02.08.2006

@<TRIPOS>MOLECULE
ASD01885303
  50   53    0    0    0
SMALL
NO_CHARGES


@<TRIPOS>ATOM
   1 C1            -0.0164     1.3561     0.0095 C.ar    
   2 C2             0.0021    -0.0041     0.0020 C.ar    
   3 C3             1.2056    -0.7066    -0.0132 C.ar    
   4 C4             2.3988    -0.0488    -0.0206 C.ar    
   5 C5             2.4185     1.3521    -0.0133 C.ar    
   6 C6             1.1968     2.0713     0.0018 C.ar    
   7 C7             3.6407     2.0708    -0.0210 C.ar    
   8 C8             3.5790     3.4576    -0.0135 C.ar    
   9 C9             2.3316     4.0919     0.0013 C.ar    
  10 N10            1.2052     3.4045     0.0092 N.ar    
  11 C11            4.9419     1.3643    -0.0362 C.ar    
  12 C12            2.2743     5.5736     0.0097 C.2     
  13 O13            3.3022     6.2214     0.0038 O.2     
  14 N14            1.0819     6.2018     0.0240 N.am    
  15 C15           -1.2996    -0.7633     0.0109 C.3     
  16 N16           -1.7364    -1.0026    -1.3712 N.3     
  17 C17            5.9187     1.7166    -0.9680 C.ar    
  18 C18            7.1293     1.0559    -0.9778 C.ar    
  19 C19            7.3763     0.0436    -0.0639 C.ar    
  20 C20            6.4090    -0.3103     0.8635 C.ar    
  21 C21            5.1974     0.3482     0.8850 C.ar    
  22 F22            8.5637    -0.6006    -0.0775 F       
  23 C23           -2.8679    -1.9377    -1.4111 C.3     
  24 C24           -3.2010    -2.2757    -2.8660 C.3     
  25 C25           -3.5521    -0.9880    -3.6165 C.3     
  26 C26           -2.3759    -0.0126    -3.5186 C.3     
  27 C27           -2.0667     0.2598    -2.0447 C.3     
  28 O28           -3.8089    -1.2903    -4.9893 O.3     
  29 H29           -0.9577     1.8854     0.0168 H       
  30 H30            1.1924    -1.7865    -0.0189 H       
  31 H31            3.3248    -0.6045    -0.0317 H       
  32 H32            4.4868     4.0426    -0.0187 H       
  33 H33            0.2613     5.6846     0.0287 H       
  34 H34            1.0444     7.1710     0.0295 H       
  35 H35           -1.1600    -1.7179     0.5182 H       
  36 H36           -2.0567    -0.1804     0.5354 H       
  37 H37            5.7270     2.5050    -1.6808 H       
  38 H38            7.8859     1.3276    -1.6990 H       
  39 H39            6.6059    -1.1003     1.5731 H       
  40 H40            4.4460     0.0748     1.6110 H       
  41 H41           -2.6036    -2.8507    -0.8775 H       
  42 H42           -3.7354    -1.4785    -0.9371 H       
  43 H43           -2.3385    -2.7475    -3.3367 H       
  44 H44           -4.0509    -2.9575    -2.8958 H       
  45 H45           -4.4381    -0.5363    -3.1701 H       
  46 H46           -1.5004    -0.4488    -3.9995 H       
  47 H47           -2.6363     0.9224    -4.0146 H       
  48 H48           -2.9380     0.7087    -1.5678 H       
  49 H49           -1.2205     0.9428    -1.9714 H       
  50 H50           -4.0382    -0.5190    -5.5257 H       
@<TRIPOS>BOND
   1    1    2 ar
   2    1    6 ar
   3    1   29 1
   4    2    3 ar
   5    2   15 1
   6    3    4 ar
   7    3   30 1
   8    4    5 ar
   9    4   31 1
  10    5    7 ar
  11    5    6 ar
  12    6   10 ar
  13    7    8 ar
  14    7   11 1
  15    8    9 ar
  16    8   32 1
  17    9   10 ar
  18    9   12 1
  19   11   17 ar
  20   11   21 ar
  21   12   13 2
  22   12   14 am
  23   14   33 1
  24   14   34 1
  25   15   16 1
  26   15   35 1
  27   15   36 1
  28   16   23 1
  29   16   27 1
  30   17   18 ar
  31   17   37 1
  32   18   19 ar
  33   18   38 1
  34   19   20 ar
  35   19   22 1
  36   20   21 ar
  37   20   39 1
  38   21   40 1
  39   23   24 1
  40   23   41 1
  41   23   42 1
  42   24   25 1
  43   24   43 1
  44   24   44 1
  45   25   26 1
  46   25   28 1
  47   25   45 1
  48   26   27 1
  49   26   46 1
  50   26   47 1
  51   27   48 1
  52   27   49 1
  53   28   50 1

#	End of record

