#	Name: ASD02408389
#	Creating user name:	WinNT
#	Creation time:	15. 06. 2019 20:21

#	Modifying user name:	WinNT
#	Modification time:	15. 06. 2019 20:21

#	Program:	/corina/corina34_cracker 3.40 0067  02.08.2006

@<TRIPOS>MOLECULE
ASD02408389
  31   32    0    0    0
SMALL
NO_CHARGES


@<TRIPOS>ATOM
   1 C1            -0.1275     1.1992     1.3312 C.2     
   2 C2            -0.2207     0.3388     0.2116 C.2     
   3 C3             1.2201     1.5142     1.4913 C.2     
   4 N4             1.8965     0.8718     0.5134 N.pl3   
   5 N5             0.9794     0.1536    -0.2615 N.2     
   6 C6             3.2823     0.9173     0.3100 C.ar    
   7 C7             3.9940    -0.2568     0.1042 C.ar    
   8 C8             5.3599    -0.2086    -0.0965 C.ar    
   9 C9             6.0182     1.0072    -0.0921 C.ar    
  10 C10            5.3120     2.1785     0.1131 C.ar    
  11 C11            3.9455     2.1374     0.3082 C.ar    
  12 N12            1.7619     2.3284     2.4646 N.pl3   
  13 C13           -1.2400     1.6745     2.1622 C.2     
  14 C14            3.2774    -1.5825     0.1003 C.3     
  15 C15            6.1333    -1.4826    -0.3199 C.3     
  16 N16           -2.5012     1.2893     1.8842 N.am    
  17 O17           -1.0236     2.4165     3.1021 O.2     
  18 H18           -1.1298    -0.0907    -0.1827 H       
  19 H19            7.0862     1.0423    -0.2488 H       
  20 H20            5.8291     3.1266     0.1167 H       
  21 H21            3.3945     3.0524     0.4680 H       
  22 H22            1.1799     2.8297     3.0568 H       
  23 H23            2.7250     2.3995     2.5565 H       
  24 H24            3.0418    -1.8651    -0.9258 H       
  25 H25            3.9170    -2.3426     0.5488 H       
  26 H26            2.3550    -1.4986     0.6749 H       
  27 H27            6.1679    -1.7042    -1.3866 H       
  28 H28            7.1481    -1.3628     0.0594 H       
  29 H29            5.6432    -2.3021     0.2058 H       
  30 H30           -2.6737     0.6979     1.1349 H       
  31 H31           -3.2365     1.6035     2.4333 H       
@<TRIPOS>BOND
   1    1    2 1
   2    1    3 2
   3    1   13 1
   4    2    5 2
   5    2   18 1
   6    3    4 1
   7    3   12 1
   8    4    5 1
   9    4    6 1
  10    6    7 ar
  11    6   11 ar
  12    7    8 ar
  13    7   14 1
  14    8    9 ar
  15    8   15 1
  16    9   10 ar
  17    9   19 1
  18   10   11 ar
  19   10   20 1
  20   11   21 1
  21   12   22 1
  22   12   23 1
  23   13   16 am
  24   13   17 2
  25   14   24 1
  26   14   25 1
  27   14   26 1
  28   15   27 1
  29   15   28 1
  30   15   29 1
  31   16   30 1
  32   16   31 1

#	End of record

