#	Name: ASD01122049
#	Creating user name:	WinNT
#	Creation time:	15. 06. 2019 18:59

#	Modifying user name:	WinNT
#	Modification time:	15. 06. 2019 18:59

#	Program:	/corina/corina34_cracker 3.40 0067  02.08.2006

@<TRIPOS>MOLECULE
ASD01122049
  40   42    0    0    0
SMALL
NO_CHARGES


@<TRIPOS>ATOM
   1 N1            -0.0158     1.3161     0.0093 N.ar    
   2 C2             0.0021    -0.0041     0.0020 C.ar    
   3 N3             1.1224    -0.6961    -0.0120 N.ar    
   4 C4             2.2994    -0.0800    -0.0199 C.ar    
   5 C5             2.3349     1.3261    -0.0131 C.ar    
   6 C6             1.1114     2.0200     0.0023 C.ar    
   7 N7             3.6077    -0.4973    -0.0347 N.pl3   
   8 C8             4.3958     0.6281    -0.0366 C.2     
   9 N9             3.6342     1.6988    -0.0238 N.2     
  10 N10            1.0822     3.4040     0.0091 N.pl3   
  11 P11            9.3881    -1.1140     0.3782 P.3     
  12 O12            9.8156    -1.0468     1.8839 O.co2   
  13 O13           10.5740    -0.6294    -0.5235 O.co2   
  14 O14            9.0183    -2.5901     0.0058 O.co2   
  15 C15            4.0763    -1.8853    -0.0458 C.3     
  16 C16            5.8661     0.6336    -0.0504 C.2     
  17 C17            6.6600     1.7036    -0.3382 C.2     
  18 C18            7.9910     1.2601    -0.2329 C.2     
  19 C19            7.9481    -0.0439     0.1101 C.2     
  20 O20            6.6644    -0.4172     0.2251 O.3     
  21 C21            4.2258    -2.3615    -1.4921 C.3     
  22 C22            5.2395    -1.4752    -2.2186 C.3     
  23 C23            4.7152    -3.8111    -1.5037 C.3     
  24 C24            2.8724    -2.2744    -2.2002 C.3     
  25 H25           -0.9375    -0.5365     0.0081 H       
  26 H26            1.9117     3.9066     0.0033 H       
  27 H27            0.2321     3.8711     0.0198 H       
  28 H28            5.0405    -1.9473     0.4587 H       
  29 H29            3.3541    -2.5167     0.4718 H       
  30 H30            6.3310     2.6991    -0.5974 H       
  31 H31            8.8795     1.8519    -0.3962 H       
  32 H32            6.2037    -1.5372    -1.7141 H       
  33 H33            5.3460    -1.8145    -3.2490 H       
  34 H34            4.8909    -0.4425    -2.2103 H       
  35 H35            3.9930    -4.4425    -0.9861 H       
  36 H36            4.8217    -4.1503    -2.5341 H       
  37 H37            5.6794    -3.8731    -0.9992 H       
  38 H38            2.5238    -1.2417    -2.1920 H       
  39 H39            2.9789    -2.6137    -3.2306 H       
  40 H40            2.1502    -2.9058    -1.6826 H       
@<TRIPOS>BOND
   1    1    2 ar
   2    1    6 ar
   3    2    3 ar
   4    2   25 1
   5    3    4 ar
   6    4    5 ar
   7    4    7 1
   8    5    6 ar
   9    5    9 1
  10    6   10 1
  11    7    8 1
  12    7   15 1
  13    8    9 2
  14    8   16 1
  15   10   26 1
  16   10   27 1
  17   11   12 ar
  18   11   13 ar
  19   11   14 ar
  20   11   19 1
  21   15   21 1
  22   15   28 1
  23   15   29 1
  24   16   17 2
  25   16   20 1
  26   17   18 1
  27   17   30 1
  28   18   19 2
  29   18   31 1
  30   19   20 1
  31   21   22 1
  32   21   23 1
  33   21   24 1
  34   22   32 1
  35   22   33 1
  36   22   34 1
  37   23   35 1
  38   23   36 1
  39   23   37 1
  40   24   38 1
  41   24   39 1
  42   24   40 1

#	End of record

