#	Name: ASD03240198
#	Creating user name:	WinNT
#	Creation time:	15. 06. 2019 20:34

#	Modifying user name:	WinNT
#	Modification time:	15. 06. 2019 20:34

#	Program:	/corina/corina34_cracker 3.40 0067  02.08.2006

@<TRIPOS>MOLECULE
ASD03240198
  50   53    0    0    0
SMALL
NO_CHARGES


@<TRIPOS>ATOM
   1 C1            -0.8162     2.2770    -1.2859 C.ar    
   2 C2            -0.6410     0.9439    -0.9594 C.ar    
   3 C3            -1.7390     0.1361    -0.7374 C.ar    
   4 C4            -3.0194     0.6628    -0.8420 C.ar    
   5 C5            -3.1924     2.0010    -1.1698 C.ar    
   6 C6            -2.0909     2.8058    -1.3852 C.ar    
   7 N7            -4.1351    -0.1546    -0.6177 N.pl3   
   8 C8            -4.3385    -1.3786    -1.1975 C.2     
   9 C9            -5.5136    -1.8982    -0.7641 C.2     
  10 C10           -6.0894    -0.9151     0.1629 C.ar    
  11 C11           -5.1773     0.1532     0.2183 C.ar    
  12 C12           -7.2577    -0.8442     0.9330 C.ar    
  13 N13           -7.4561     0.2376     1.6815 N.ar    
  14 C14           -6.5760     1.2219     1.7006 C.ar    
  15 N15           -5.4632     1.1937     0.9992 N.ar    
  16 N16           -8.1821    -1.8734     0.9152 N.pl3   
  17 C17           -9.3976    -1.7803     1.7276 C.3     
  18 C18          -10.2428    -3.0398     1.5271 C.3     
  19 C19           -6.1021    -3.2026    -1.1506 C.ar    
  20 C20           -6.2103    -3.5503    -2.4964 C.ar    
  21 C21           -6.5443    -4.0890    -0.1694 C.ar    
  22 C22           -7.0909    -5.3021    -0.5353 C.ar    
  23 C23           -7.2000    -5.6396    -1.8724 C.ar    
  24 C24           -6.7586    -4.7662    -2.8501 C.ar    
  25 Br25           0.6895     3.3801    -1.5892 Br      
  26 O26          -10.5993    -3.1598     0.1485 O.3     
  27 C27          -11.6522    -4.0933    -0.1005 C.3     
  28 O28           -9.4899    -4.1871     1.9260 O.3     
  29 C29          -10.2913    -5.3283     2.2384 C.3     
  30 H30            0.3551     0.5346    -0.8785 H       
  31 H31           -1.6017    -0.9045    -0.4830 H       
  32 H32           -4.1873     2.4132    -1.2518 H       
  33 H33           -2.2248     3.8467    -1.6402 H       
  34 H34           -3.6658    -1.8569    -1.8940 H       
  35 H35           -6.7752     2.0828     2.3216 H       
  36 H36           -8.0254    -2.6566     0.3647 H       
  37 H37           -9.1257    -1.6888     2.7792 H       
  38 H38           -9.9719    -0.9052     1.4234 H       
  39 H39          -11.1472    -2.9706     2.1316 H       
  40 H40           -5.8660    -2.8692    -3.2606 H       
  41 H41           -6.4589    -3.8269     0.8748 H       
  42 H42           -7.4337    -5.9896     0.2238 H       
  43 H43           -7.6278    -6.5905    -2.1539 H       
  44 H44           -6.8467    -5.0349    -3.8925 H       
  45 H45          -12.4009    -4.0152     0.6879 H       
  46 H46          -12.1136    -3.8723    -1.0629 H       
  47 H47          -11.2452    -5.1043    -0.1163 H       
  48 H48           -9.6642    -6.1026     2.6804 H       
  49 H49          -11.0694    -5.0429     2.9464 H       
  50 H50          -10.7514    -5.7097     1.3269 H       
@<TRIPOS>BOND
   1    1    2 ar
   2    1   25 1
   3    1    6 ar
   4    2    3 ar
   5    2   30 1
   6    3    4 ar
   7    3   31 1
   8    4    5 ar
   9    4    7 1
  10    5    6 ar
  11    5   32 1
  12    6   33 1
  13    7    8 1
  14    7   11 1
  15    8    9 2
  16    8   34 1
  17    9   10 1
  18    9   19 1
  19   10   11 ar
  20   10   12 ar
  21   11   15 ar
  22   12   13 ar
  23   12   16 1
  24   13   14 ar
  25   14   15 ar
  26   14   35 1
  27   16   17 1
  28   16   36 1
  29   17   18 1
  30   17   37 1
  31   17   38 1
  32   18   26 1
  33   18   28 1
  34   18   39 1
  35   19   20 ar
  36   19   21 ar
  37   20   24 ar
  38   20   40 1
  39   21   22 ar
  40   21   41 1
  41   22   23 ar
  42   22   42 1
  43   23   24 ar
  44   23   43 1
  45   24   44 1
  46   26   27 1
  47   27   45 1
  48   27   46 1
  49   27   47 1
  50   28   29 1
  51   29   48 1
  52   29   49 1
  53   29   50 1

#	End of record

