#	Name: ASD01903145
#	Creating user name:	WinNT
#	Creation time:	15. 06. 2019 19:54

#	Modifying user name:	WinNT
#	Modification time:	15. 06. 2019 19:54

#	Program:	/corina/corina34_cracker 3.40 0067  02.08.2006

@<TRIPOS>MOLECULE
ASD01903145
  46   48    0    0    0
SMALL
NO_CHARGES


@<TRIPOS>ATOM
   1 C1             1.7352    -1.7088     2.0545 C.ar    
   2 C2             0.7254    -1.1738     1.2706 C.ar    
   3 C3             0.9983    -0.0800     0.4643 C.ar    
   4 N4             2.1996     0.4541     0.4345 N.ar    
   5 C5             3.1944    -0.0279     1.1697 C.ar    
   6 C6             2.9917    -1.1254     2.0030 C.ar    
   7 C7             4.5311     0.6069     1.1033 C.2     
   8 N8             4.7335     1.6692     0.2989 N.am    
   9 O9             5.4454     0.1698     1.7741 O.2     
  10 C10            5.9667     2.3283     0.3080 C.ar    
  11 C11            7.1402     1.6066     0.4848 C.ar    
  12 C12            8.3566     2.2606     0.4933 C.ar    
  13 C13            8.4069     3.6324     0.3261 C.ar    
  14 C14            7.2404     4.3539     0.1503 C.ar    
  15 C15            6.0212     3.7053     0.1346 C.ar    
  16 S16            9.9609     4.4629     0.3377 S.o2    
  17 O17            9.6929     5.8106     0.7000 O.2     
  18 O18           10.8568     3.6278     1.0582 O.2     
  19 N19           10.5091     4.4989    -1.2245 N.am    
  20 C20            9.7606     5.1424    -2.2127 C.ar    
  21 C21            9.7210     4.6274    -3.5020 C.ar    
  22 C22            8.9794     5.2661    -4.4766 C.ar    
  23 C23            8.2773     6.4171    -4.1701 C.ar    
  24 C24            8.3146     6.9326    -2.8873 C.ar    
  25 C25            9.0493     6.2960    -1.9067 C.ar    
  26 C26           10.4867     3.3735    -3.8372 C.3     
  27 C27            7.5481     8.1877    -2.5580 C.3     
  28 H28            1.5465    -2.5581     2.6944 H       
  29 H29           -0.2646    -1.6052     1.2875 H       
  30 H30            0.2137     0.3392    -0.1482 H       
  31 H31            3.8020    -1.5166     2.6003 H       
  32 H32            4.0236     1.9765    -0.2864 H       
  33 H33            7.1015     0.5353     0.6158 H       
  34 H34            9.2694     1.7001     0.6311 H       
  35 H35            7.2831     5.4252     0.0203 H       
  36 H36            5.1105     4.2693    -0.0027 H       
  37 H37           11.3500     4.0730    -1.4534 H       
  38 H38            8.9482     4.8661    -5.4794 H       
  39 H39            7.6988     6.9149    -4.9343 H       
  40 H40            9.0777     6.6989    -0.9051 H       
  41 H41            9.8524     2.5037    -3.6662 H       
  42 H42           10.7901     3.4018    -4.8837 H       
  43 H43           11.3716     3.3079    -3.2041 H       
  44 H44            6.5436     7.9238    -2.2271 H       
  45 H45            8.0618     8.7292    -1.7636 H       
  46 H46            7.4846     8.8179    -3.4451 H       
@<TRIPOS>BOND
   1    1    2 ar
   2    1    6 ar
   3    1   28 1
   4    2    3 ar
   5    2   29 1
   6    3    4 ar
   7    3   30 1
   8    4    5 ar
   9    5    6 ar
  10    5    7 1
  11    6   31 1
  12    7    8 am
  13    7    9 2
  14    8   10 1
  15    8   32 1
  16   10   11 ar
  17   10   15 ar
  18   11   12 ar
  19   11   33 1
  20   12   13 ar
  21   12   34 1
  22   13   14 ar
  23   13   16 1
  24   14   15 ar
  25   14   35 1
  26   15   36 1
  27   16   17 2
  28   16   18 2
  29   16   19 am
  30   19   20 1
  31   19   37 1
  32   20   21 ar
  33   20   25 ar
  34   21   22 ar
  35   21   26 1
  36   22   23 ar
  37   22   38 1
  38   23   24 ar
  39   23   39 1
  40   24   25 ar
  41   24   27 1
  42   25   40 1
  43   26   41 1
  44   26   42 1
  45   26   43 1
  46   27   44 1
  47   27   45 1
  48   27   46 1

#	End of record

