#	Name: ASD01209230
#	Creating user name:	WinNT
#	Creation time:	15. 06. 2019 19:11

#	Modifying user name:	WinNT
#	Modification time:	15. 06. 2019 19:11

#	Program:	/corina/corina34_cracker 3.40 0067  02.08.2006

@<TRIPOS>MOLECULE
ASD01209230
  53   54    0    0    0
SMALL
NO_CHARGES


@<TRIPOS>ATOM
   1 O1            -0.0173     1.4248     0.0099 O.3     
   2 O2             2.1367     2.0777     1.3686 O.3     
   3 C3            -0.0280     5.3720    -5.9359 C.2     
   4 N4             0.7717     5.2055    -4.8639 N.am    
   5 O5            -1.2256     5.2124    -5.8298 O.2     
   6 C6             0.2239     4.8508    -3.6366 C.2     
   7 P7             1.3209     2.3199     0.0019 P.3     
   8 O8             2.1650     1.9351    -1.1513 O.2     
   9 C9             0.8726     4.0817    -0.1342 C.3     
  10 N10            0.9010     4.6662    -2.5468 N.2     
  11 S11           -1.4419     4.6015    -3.3430 S.3     
  12 C12           -1.0997     4.2310    -1.6550 C.2     
  13 C13            0.2177     4.3319    -1.4682 C.2     
  14 C14            0.0021    -0.0041     0.0020 C.3     
  15 C15           -1.4333    -0.5336     0.0129 C.3     
  16 C16            2.7182     0.8193     1.7153 C.3     
  17 C17            3.4161     0.9364     3.0718 C.3     
  18 C18            0.5659     5.7566    -7.2665 C.3     
  19 C19           -0.5329     5.8781    -8.2907 C.ar    
  20 C20           -1.1655     7.0914    -8.4828 C.ar    
  21 C21           -0.9020     4.7776    -9.0401 C.ar    
  22 C22           -1.9132     4.8871    -9.9842 C.ar    
  23 C23           -2.5531     6.1020   -10.1752 C.ar    
  24 C24           -2.1776     7.2060    -9.4254 C.ar    
  25 O25           -2.2756     3.8044   -10.7213 O.3     
  26 C26           -3.3239     3.9899   -11.6745 C.3     
  27 O27           -2.8029     8.3983    -9.6103 O.3     
  28 C28           -3.8385     8.4420   -10.5940 C.3     
  29 H29            1.7295     5.3331    -4.9488 H       
  30 H30            0.1796     4.3431     0.6655 H       
  31 H31            1.7713     4.6928    -0.0503 H       
  32 H32           -1.8291     3.9713    -0.9021 H       
  33 H33            0.5123    -0.3556    -0.8948 H       
  34 H34            0.5293    -0.3651     0.8851 H       
  35 H35           -1.9605    -0.1726    -0.8702 H       
  36 H36           -1.4185    -1.6235     0.0069 H       
  37 H37           -1.9435    -0.1821     0.9097 H       
  38 H38            1.9368     0.0615     1.7729 H       
  39 H39            3.4459     0.5337     0.9558 H       
  40 H40            2.6884     1.2220     3.8314 H       
  41 H41            3.8596    -0.0235     3.3363 H       
  42 H42            4.1975     1.6941     3.0142 H       
  43 H43            1.0816     6.7122    -7.1717 H       
  44 H44            1.2745     4.9912    -7.5829 H       
  45 H45           -0.8724     7.9513    -7.8987 H       
  46 H46           -0.4030     3.8314    -8.8913 H       
  47 H47           -3.3403     6.1892   -10.9094 H       
  48 H48           -4.2299     4.3107   -11.1604 H       
  49 H49           -3.0276     4.7503   -12.3971 H       
  50 H50           -3.5139     3.0502   -12.1932 H       
  51 H51           -3.4270     8.1731   -11.5669 H       
  52 H52           -4.6253     7.7372   -10.3249 H       
  53 H53           -4.2531     9.4490   -10.6406 H       
@<TRIPOS>BOND
   1    1   14 1
   2    1    7 1
   3    2   16 1
   4    2    7 1
   5    3    4 am
   6    3    5 2
   7    3   18 1
   8    4    6 1
   9    4   29 1
  10    6   10 2
  11    6   11 1
  12    7    8 2
  13    7    9 1
  14    9   13 1
  15    9   30 1
  16    9   31 1
  17   10   13 1
  18   11   12 1
  19   12   13 2
  20   12   32 1
  21   14   15 1
  22   14   33 1
  23   14   34 1
  24   15   35 1
  25   15   36 1
  26   15   37 1
  27   16   17 1
  28   16   38 1
  29   16   39 1
  30   17   40 1
  31   17   41 1
  32   17   42 1
  33   18   19 1
  34   18   43 1
  35   18   44 1
  36   19   20 ar
  37   19   21 ar
  38   20   24 ar
  39   20   45 1
  40   21   22 ar
  41   21   46 1
  42   22   23 ar
  43   22   25 1
  44   23   24 ar
  45   23   47 1
  46   24   27 1
  47   25   26 1
  48   26   48 1
  49   26   49 1
  50   26   50 1
  51   27   28 1
  52   28   51 1
  53   28   52 1
  54   28   53 1

#	End of record

