#	Name: ASD02038540
#	Creating user name:	WinNT
#	Creation time:	15. 06. 2019 20:16

#	Modifying user name:	WinNT
#	Modification time:	15. 06. 2019 20:16

#	Program:	/corina/corina34_cracker 3.40 0067  02.08.2006

@<TRIPOS>MOLECULE
ASD02038540
  51   53    0    0    0
SMALL
NO_CHARGES


@<TRIPOS>ATOM
   1 F1             6.4880     3.4958    -3.1202 F       
   2 C2            -0.3042     1.4756    -0.1463 C.3     
   3 N3            -0.3145     0.0052    -0.1784 N.am    
   4 C4            -0.8559    -0.7050     0.8310 C.2     
   5 C5             0.2815    -0.6696    -1.3415 C.3     
   6 C6             1.6871    -0.1023    -1.5660 C.3     
   7 N7             1.6104     1.3611    -1.6689 N.3     
   8 C8             2.8458     1.9030    -2.0362 C.ar    
   9 C9             2.9850     3.2765    -2.1878 C.ar    
  10 C10            4.2080     3.8100    -2.5512 C.ar    
  11 C11            5.2938     2.9737    -2.7644 C.ar    
  12 C12            5.1553     1.6052    -2.6134 C.ar    
  13 C13            3.9364     1.0691    -2.2443 C.ar    
  14 C14            1.1245     1.9585    -0.4179 C.3     
  15 C15           -0.8557    -2.2111     0.7776 C.3     
  16 O16           -1.4807    -2.7295     1.9534 O.3     
  17 C17           -1.5632    -4.0823     2.0633 C.ar    
  18 C18           -2.1579    -4.6522     3.1794 C.ar    
  19 O19           -1.3434    -0.1320     1.7823 O.2     
  20 C20           -2.2419    -6.0260     3.2917 C.ar    
  21 C21           -1.7314    -6.8368     2.2870 C.ar    
  22 C22           -1.1366    -6.2658     1.1700 C.ar    
  23 C23           -1.0576    -4.8918     1.0567 C.ar    
  24 N24           -1.8159    -8.2312     2.4005 N.am    
  25 C25           -2.8945    -8.7961     2.9784 C.2     
  26 O26           -3.7541    -8.0953     3.4769 O.2     
  27 N27           -3.0203   -10.1377     3.0038 N.am    
  28 C28           -4.1927   -10.7517     3.6320 C.3     
  29 F29            4.3450     5.1459    -2.6990 F       
  30 H30           -0.9739     1.8633    -0.9140 H       
  31 H31           -0.6277     1.8227     0.8350 H       
  32 H32            0.3452    -1.7408    -1.1504 H       
  33 H33           -0.3319    -0.4882    -2.2241 H       
  34 H34            2.3276    -0.3748    -0.7272 H       
  35 H35            2.1012    -0.5105    -2.4880 H       
  36 H36            2.1391     3.9272    -2.0224 H       
  37 H37            6.0020     0.9557    -2.7798 H       
  38 H38            3.8295     0.0009    -2.1268 H       
  39 H39            1.1305     3.0448    -0.5072 H       
  40 H40            1.7728     1.6572     0.4049 H       
  41 H41           -1.4055    -2.5435    -0.1029 H       
  42 H42            0.1712    -2.5725     0.7225 H       
  43 H43           -2.5550    -4.0214     3.9609 H       
  44 H44           -2.7044    -6.4696     4.1610 H       
  45 H45           -0.7389    -6.8960     0.3882 H       
  46 H46           -0.5950    -4.4474     0.1878 H       
  47 H47           -1.0982    -8.7897     2.0632 H       
  48 H48           -2.3346   -10.6967     2.6061 H       
  49 H49           -5.0961   -10.4121     3.1254 H       
  50 H50           -4.1194   -11.8366     3.5557 H       
  51 H51           -4.2350   -10.4634     4.6823 H       
@<TRIPOS>BOND
   1    1   11 1
   2    2    3 1
   3    2   14 1
   4    2   30 1
   5    2   31 1
   6    3    4 am
   7    3    5 1
   8    4   15 1
   9    4   19 2
  10    5    6 1
  11    5   32 1
  12    5   33 1
  13    6    7 1
  14    6   34 1
  15    6   35 1
  16    7    8 1
  17    7   14 1
  18    8    9 ar
  19    8   13 ar
  20    9   10 ar
  21    9   36 1
  22   10   11 ar
  23   10   29 1
  24   11   12 ar
  25   12   13 ar
  26   12   37 1
  27   13   38 1
  28   14   39 1
  29   14   40 1
  30   15   16 1
  31   15   41 1
  32   15   42 1
  33   16   17 1
  34   17   18 ar
  35   17   23 ar
  36   18   20 ar
  37   18   43 1
  38   20   21 ar
  39   20   44 1
  40   21   22 ar
  41   21   24 1
  42   22   23 ar
  43   22   45 1
  44   23   46 1
  45   24   25 am
  46   24   47 1
  47   25   26 2
  48   25   27 am
  49   27   28 1
  50   27   48 1
  51   28   49 1
  52   28   50 1
  53   28   51 1

#	End of record

