#	Name: ASD01940229
#	Creating user name:	WinNT
#	Creation time:	15. 06. 2019 20:12

#	Modifying user name:	WinNT
#	Modification time:	15. 06. 2019 20:12

#	Program:	/corina/corina34_cracker 3.40 0067  02.08.2006

@<TRIPOS>MOLECULE
ASD01940229
  36   38    0    0    0
SMALL
NO_CHARGES


@<TRIPOS>ATOM
   1 C1             3.7327     4.4954     1.4867 C.3     
   2 I2            -3.2015    11.6761    -0.2685 I       
   3 F3            -2.2805     4.3849     0.3354 F       
   4 C4            -1.3090     4.4975     1.2675 C.ar    
   5 C5            -0.2632     5.3908     1.0768 C.ar    
   6 C6             0.7365     5.5037     2.0416 C.ar    
   7 C7             0.6823     4.7238     3.1871 C.ar    
   8 C8            -0.3612     3.8355     3.3714 C.ar    
   9 C9            -1.3582     3.7252     2.4171 C.ar    
  10 N10           -0.2127     6.1764    -0.0829 N.pl3   
  11 N11            1.7945     6.4033     1.8542 N.am    
  12 C12           -0.8801     7.4046    -0.1249 C.ar    
  13 C13           -1.5351     7.8795     1.0031 C.ar    
  14 C14           -2.1933     9.0937     0.9588 C.ar    
  15 C15           -2.2011     9.8364    -0.2077 C.ar    
  16 C16           -1.5500     9.3670    -1.3350 C.ar    
  17 C17           -0.8843     8.1562    -1.2960 C.ar    
  18 F18           -0.2486     7.6978    -2.3964 F       
  19 F19           -2.3787     2.8602     2.6051 F       
  20 S20            3.3148     6.0155     2.3840 S.o2    
  21 O21            3.1452     5.7465     3.7690 O.2     
  22 O22            4.1261     7.0949     1.9413 O.2     
  23 C23            5.0500     3.8039     1.8436 C.3     
  24 C24            3.7193     3.1838     2.2743 C.3     
  25 H25            3.4121     4.4609     0.4455 H       
  26 H26            1.4561     4.8100     3.9356 H       
  27 H27           -0.4008     3.2290     4.2641 H       
  28 H28            0.2851     5.8682    -0.8562 H       
  29 H29            1.6363     7.2532     1.4143 H       
  30 H30           -1.5304     7.3003     1.9147 H       
  31 H31           -2.7028     9.4630     1.8365 H       
  32 H32           -1.5582     9.9492    -2.2446 H       
  33 H33            5.5959     3.3141     1.0372 H       
  34 H34            5.6656     4.2624     2.6176 H       
  35 H35            3.4594     3.2343     3.3317 H       
  36 H36            3.3898     2.2860     1.7514 H       
@<TRIPOS>BOND
   1    1   23 1
   2    1   20 1
   3    1   24 1
   4    1   25 1
   5    2   15 1
   6    3    4 1
   7    4    5 ar
   8    4    9 ar
   9    5    6 ar
  10    5   10 1
  11    6    7 ar
  12    6   11 1
  13    7    8 ar
  14    7   26 1
  15    8    9 ar
  16    8   27 1
  17    9   19 1
  18   10   12 1
  19   10   28 1
  20   11   20 am
  21   11   29 1
  22   12   13 ar
  23   12   17 ar
  24   13   14 ar
  25   13   30 1
  26   14   15 ar
  27   14   31 1
  28   15   16 ar
  29   16   17 ar
  30   16   32 1
  31   17   18 1
  32   20   21 2
  33   20   22 2
  34   23   24 1
  35   23   33 1
  36   23   34 1
  37   24   35 1
  38   24   36 1

#	End of record

