#	Name: ASD01890205
#	Creating user name:	WinNT
#	Creation time:	15. 06. 2019 19:50

#	Modifying user name:	WinNT
#	Modification time:	15. 06. 2019 19:50

#	Program:	/corina/corina34_cracker 3.40 0067  02.08.2006

@<TRIPOS>MOLECULE
ASD01890205
  36   37    0    0    0
SMALL
NO_CHARGES


@<TRIPOS>ATOM
   1 C1            -0.0184     1.5028     0.0103 C.2     
   2 C2             0.0021    -0.0041     0.0020 C.3     
   3 C3             1.4513    -0.4944    -0.0145 C.3     
   4 O4             1.0234     2.1233     0.0037 O.2     
   5 C5            -1.3027     2.2212     0.0203 C.ar    
   6 C6            -1.3259     3.6195     0.0280 C.ar    
   7 C7            -2.5333     4.2853     0.0374 C.ar    
   8 C8            -3.7202     3.5735     0.0397 C.ar    
   9 C9            -3.7057     2.1896     0.0321 C.ar    
  10 C10           -2.5064     1.5092     0.0164 C.ar    
  11 C11            1.4717    -2.0012    -0.0227 C.ar    
  12 C12            1.4697    -2.6859    -1.2236 C.ar    
  13 C13            1.4884    -4.0681    -1.2312 C.ar    
  14 C14            1.5096    -4.7656    -0.0379 C.ar    
  15 C15            1.5126    -4.0809     1.1629 C.ar    
  16 C16            1.4982    -2.6987     1.1705 C.ar    
  17 C17            1.5290    -6.2725    -0.0462 C.3     
  18 C18            2.9778    -6.7638    -0.0638 C.3     
  19 H19           -0.4983    -0.3791     0.8948 H       
  20 H20           -0.5153    -0.3696    -0.8850 H       
  21 H21            1.9516    -0.1193    -0.9073 H       
  22 H22            1.9686    -0.1289     0.8726 H       
  23 H23           -0.4005     4.1764     0.0270 H       
  24 H24           -2.5529     5.3652     0.0434 H       
  25 H25           -4.6628     4.1007     0.0478 H       
  26 H26           -4.6360     1.6411     0.0339 H       
  27 H27           -2.4967     0.4293     0.0055 H       
  28 H28            1.4531    -2.1409    -2.1559 H       
  29 H29            1.4860    -4.6030    -2.1694 H       
  30 H30            1.5288    -4.6259     2.0952 H       
  31 H31            1.5043    -2.1637     2.1086 H       
  32 H32            1.0290    -6.6472     0.8470 H       
  33 H33            1.0107    -6.6376    -0.9329 H       
  34 H34            3.4778    -6.3891    -0.9570 H       
  35 H35            3.4961    -6.3986     0.8229 H       
  36 H36            2.9919    -7.8537    -0.0698 H       
@<TRIPOS>BOND
   1    1    2 1
   2    1    4 2
   3    1    5 1
   4    2    3 1
   5    2   19 1
   6    2   20 1
   7    3   11 1
   8    3   21 1
   9    3   22 1
  10    5    6 ar
  11    5   10 ar
  12    6    7 ar
  13    6   23 1
  14    7    8 ar
  15    7   24 1
  16    8    9 ar
  17    8   25 1
  18    9   10 ar
  19    9   26 1
  20   10   27 1
  21   11   12 ar
  22   11   16 ar
  23   12   13 ar
  24   12   28 1
  25   13   14 ar
  26   13   29 1
  27   14   15 ar
  28   14   17 1
  29   15   16 ar
  30   15   30 1
  31   16   31 1
  32   17   18 1
  33   17   32 1
  34   17   33 1
  35   18   34 1
  36   18   35 1
  37   18   36 1

#	End of record

