#	Name: ASD01810601
#	Creating user name:	WinNT
#	Creation time:	15. 06. 2019 19:24

#	Modifying user name:	WinNT
#	Modification time:	15. 06. 2019 19:24

#	Program:	/corina/corina34_cracker 3.40 0067  02.08.2006

@<TRIPOS>MOLECULE
ASD01810601
  64   67    0    0    0
SMALL
NO_CHARGES


@<TRIPOS>ATOM
   1 N1            -0.0738     1.2948     0.3587 N.pl3   
   2 C2             0.0032    -0.0072    -0.0501 C.2     
   3 C3             1.2033    -0.8591    -0.0322 C.2     
   4 N4             1.0779    -2.1981     0.0570 N.am    
   5 O5             2.3081    -0.3548    -0.0980 O.2     
   6 C6             2.2525    -3.0705    -0.0772 C.3     
   7 C7             1.9696    -4.1148    -1.1617 C.3     
   8 C8             0.6725    -4.8544    -0.8261 C.3     
   9 C9            -0.4908    -3.8603    -0.7977 C.3     
  10 C10           -0.2349    -2.8127     0.2965 C.3     
  11 C11            0.4088    -5.9059    -1.8729 C.ar    
  12 C12            0.3247    -7.2373    -1.5057 C.ar    
  13 C13            0.0831    -8.2049    -2.4586 C.ar    
  14 C14           -0.0766    -7.8382    -3.7964 C.ar    
  15 C15            0.0095    -6.4928    -4.1600 C.ar    
  16 C16            0.2463    -5.5350    -3.1959 C.ar    
  17 C17           -0.3272    -8.8374    -4.7911 C.1     
  18 N18           -0.5259    -9.6301    -5.5802 N.1     
  19 C19           -1.2545    -0.3732    -0.4824 C.2     
  20 C20           -2.0945     0.7338    -0.3271 C.2     
  21 N21           -1.3946     1.7235     0.1785 N.2     
  22 C22            1.0280     2.0971     0.8958 C.3     
  23 N23           -3.4571     0.7779    -0.6512 N.am    
  24 C24           -4.0643    -0.3122    -1.1605 C.2     
  25 O25           -3.4297    -1.3341    -1.3389 O.2     
  26 C26           -5.4988    -0.2657    -1.5017 C.ar    
  27 C27           -6.2366     0.9019    -1.3010 C.ar    
  28 N28           -7.5170     0.9444    -1.6057 N.ar    
  29 C29           -8.1475    -0.1080    -2.1089 C.ar    
  30 C30           -7.4729    -1.3067    -2.3351 C.ar    
  31 C31           -6.1398    -1.3932    -2.0381 C.ar    
  32 N32           -9.4950    -0.0150    -2.4137 N.pl3   
  33 C33          -10.2017    -1.1713    -2.9701 C.3     
  34 C34          -10.6720    -2.0781    -1.8311 C.3     
  35 C35          -11.4124    -0.6912    -3.7729 C.3     
  36 H36            3.1198    -2.4745    -0.3613 H       
  37 H37            2.4457    -3.5716     0.8712 H       
  38 H38            1.8662    -3.6185    -2.1266 H       
  39 H39            2.7937    -4.8270    -1.2047 H       
  40 H40            0.7677    -5.3299     0.1501 H       
  41 H41           -0.5710    -3.3664    -1.7660 H       
  42 H42           -1.4179    -4.3912    -0.5817 H       
  43 H43           -0.2457    -3.2951     1.2739 H       
  44 H44           -1.0087    -2.0461     0.2565 H       
  45 H45            0.4487    -7.5195    -0.4706 H       
  46 H46            0.0180    -9.2438    -2.1707 H       
  47 H47           -0.1127    -6.2024    -5.1930 H       
  48 H48            0.3132    -4.4940    -3.4757 H       
  49 H49           -1.5388    -1.3398    -0.8712 H       
  50 H50            1.5961     2.5312     0.0730 H       
  51 H51            0.6259     2.8948     1.5203 H       
  52 H52            1.6820     1.4623     1.4936 H       
  53 H53           -3.9633     1.5930    -0.5089 H       
  54 H54           -5.7538     1.7772    -0.8924 H       
  55 H55           -7.9964    -2.1577    -2.7450 H       
  56 H56           -5.5953    -2.3109    -2.2048 H       
  57 H57           -9.9711     0.8159    -2.2587 H       
  58 H58           -9.5298    -1.7277    -3.6237 H       
  59 H59           -9.8094    -2.4202    -1.2591 H       
  60 H60          -11.3439    -1.5217    -1.1775 H       
  61 H61          -11.1978    -2.9385    -2.2451 H       
  62 H62          -11.0774    -0.0452    -4.5844 H       
  63 H63          -11.9382    -1.5516    -4.1869 H       
  64 H64          -12.0843    -0.1349    -3.1193 H       
@<TRIPOS>BOND
   1    1    2 1
   2    1   22 1
   3    1   21 1
   4    2    3 1
   5    2   19 2
   6    3    4 am
   7    3    5 2
   8    4    6 1
   9    4   10 1
  10    6    7 1
  11    6   36 1
  12    6   37 1
  13    7    8 1
  14    7   38 1
  15    7   39 1
  16    8    9 1
  17    8   11 1
  18    8   40 1
  19    9   10 1
  20    9   41 1
  21    9   42 1
  22   10   43 1
  23   10   44 1
  24   11   12 ar
  25   11   16 ar
  26   12   13 ar
  27   12   45 1
  28   13   14 ar
  29   13   46 1
  30   14   15 ar
  31   14   17 1
  32   15   16 ar
  33   15   47 1
  34   16   48 1
  35   17   18 3
  36   19   20 1
  37   19   49 1
  38   20   21 2
  39   20   23 1
  40   22   50 1
  41   22   51 1
  42   22   52 1
  43   23   24 am
  44   23   53 1
  45   24   25 2
  46   24   26 1
  47   26   27 ar
  48   26   31 ar
  49   27   28 ar
  50   27   54 1
  51   28   29 ar
  52   29   30 ar
  53   29   32 1
  54   30   31 ar
  55   30   55 1
  56   31   56 1
  57   32   33 1
  58   32   57 1
  59   33   34 1
  60   33   35 1
  61   33   58 1
  62   34   59 1
  63   34   60 1
  64   34   61 1
  65   35   62 1
  66   35   63 1
  67   35   64 1

#	End of record

