#	Name: ASD02030062
#	Creating user name:	WinNT
#	Creation time:	15. 06. 2019 20:14

#	Modifying user name:	WinNT
#	Modification time:	15. 06. 2019 20:14

#	Program:	/corina/corina34_cracker 3.40 0067  02.08.2006

@<TRIPOS>MOLECULE
ASD02030062
  72   76    0    0    0
SMALL
NO_CHARGES


@<TRIPOS>ATOM
   1 N1            -2.0911     1.3812    -0.6934 N.am    
   2 C2            -2.1508     0.0409    -0.8214 C.2     
   3 N3            -1.2179    -0.7344    -0.2339 N.am    
   4 C4            -1.3386    -2.1224    -0.2749 C.ar    
   5 O5            -3.0461    -0.4689    -1.4669 O.2     
   6 C6            -2.5996    -2.7105    -0.2516 C.ar    
   7 C7            -2.7225    -4.0807    -0.2925 C.ar    
   8 C8            -1.5785    -4.8820    -0.3575 C.ar    
   9 C9            -0.3132    -4.2876    -0.3807 C.ar    
  10 C10           -0.1980    -2.9165    -0.3449 C.ar    
  11 C11           -1.7062    -6.3503    -0.4010 C.2     
  12 O12           -0.6026    -7.1210    -0.4636 O.3     
  13 O13           -2.8065    -6.8653    -0.3803 O.2     
  14 C14           -0.8038    -8.5584    -0.5035 C.3     
  15 C15           -0.7932    -9.1473     0.9290 C.3     
  16 C16           -0.4069   -10.6276     0.6872 C.3     
  17 C17            0.6350   -10.5660    -0.4487 C.3     
  18 C18            0.3827    -9.2503    -1.2058 C.3     
  19 N19            0.0438    -9.5324    -2.6029 N.am    
  20 C20            1.0229    -9.6801    -3.5172 C.2     
  21 O21            2.1874    -9.5792    -3.1826 O.2     
  22 C22            0.6815    -9.9642    -4.9248 C.ar    
  23 C23            1.6951   -10.1177    -5.8743 C.ar    
  24 C24            1.3725   -10.3826    -7.1865 C.ar    
  25 C25            0.0406   -10.4975    -7.5671 C.ar    
  26 C26           -0.9707   -10.3450    -6.6257 C.ar    
  27 C27           -0.6561   -10.0861    -5.3103 C.ar    
  28 C28           -2.9923     2.1916    -1.3930 C.ar    
  29 C29           -3.4318     3.3853    -0.8358 C.ar    
  30 C30           -4.3212     4.1829    -1.5287 C.ar    
  31 C31           -4.7745     3.7938    -2.7758 C.ar    
  32 C32           -4.3387     2.6058    -3.3334 C.ar    
  33 C33           -3.4445     1.8067    -2.6482 C.ar    
  34 O34           -0.2734   -10.7587    -8.8613 O.3     
  35 C35           -1.6615   -10.8639    -9.1836 C.3     
  36 C36           -1.8151   -11.1545   -10.6543 C.ar    
  37 C37           -1.8495   -12.4624   -11.1005 C.ar    
  38 C38           -1.9904   -12.7290   -12.4496 C.ar    
  39 C39           -2.0973   -11.6876   -13.3524 C.ar    
  40 C40           -2.0638   -10.3797   -12.9061 C.ar    
  41 C41           -1.9273   -10.1132   -11.5565 C.ar    
  42 H42           -1.4261     1.7839    -0.1134 H       
  43 H43           -0.4625    -0.3264     0.2176 H       
  44 H44           -3.4828    -2.0910    -0.2011 H       
  45 H45           -3.7015    -4.5365    -0.2741 H       
  46 H46            0.5726    -4.9035    -0.4306 H       
  47 H47            0.7790    -2.4567    -0.3632 H       
  48 H48           -1.7403    -8.7977    -1.0075 H       
  49 H49           -0.0456    -8.6488     1.5460 H       
  50 H50           -1.7813    -9.0752     1.3836 H       
  51 H51            0.0337   -11.0586     1.5862 H       
  52 H52           -1.2783   -11.2031     0.3747 H       
  53 H53            1.6423   -10.5697    -0.0321 H       
  54 H54            0.5054   -11.4143    -1.1208 H       
  55 H55            1.2674    -8.6156    -1.1566 H       
  56 H56           -0.8853    -9.6128    -2.8699 H       
  57 H57            2.7303   -10.0282    -5.5794 H       
  58 H58            2.1553   -10.5010    -7.9210 H       
  59 H59           -2.0044   -10.4346    -6.9254 H       
  60 H60           -1.4424    -9.9681    -4.5794 H       
  61 H61           -3.0787     3.6894     0.1385 H       
  62 H62           -4.6634     5.1114    -1.0959 H       
  63 H63           -5.4706     4.4189    -3.3154 H       
  64 H64           -4.6946     2.3046    -4.3076 H       
  65 H65           -3.1046     0.8789    -3.0842 H       
  66 H66           -2.1087   -11.6722    -8.6049 H       
  67 H67           -2.1622    -9.9257    -8.9444 H       
  68 H68           -1.7660   -13.2760   -10.3952 H       
  69 H69           -2.0166   -13.7508   -12.7983 H       
  70 H70           -2.2066   -11.8959   -14.4065 H       
  71 H71           -2.1469    -9.5661   -13.6115 H       
  72 H72           -1.9049    -9.0914   -11.2075 H       
@<TRIPOS>BOND
   1    1    2 am
   2    1   28 1
   3    1   42 1
   4    2    3 am
   5    2    5 2
   6    3    4 1
   7    3   43 1
   8    4    6 ar
   9    4   10 ar
  10    6    7 ar
  11    6   44 1
  12    7    8 ar
  13    7   45 1
  14    8    9 ar
  15    8   11 1
  16    9   10 ar
  17    9   46 1
  18   10   47 1
  19   11   12 1
  20   11   13 2
  21   12   14 1
  22   14   15 1
  23   14   18 1
  24   14   48 1
  25   15   16 1
  26   15   49 1
  27   15   50 1
  28   16   17 1
  29   16   51 1
  30   16   52 1
  31   17   18 1
  32   17   53 1
  33   17   54 1
  34   18   19 1
  35   18   55 1
  36   19   20 am
  37   19   56 1
  38   20   21 2
  39   20   22 1
  40   22   23 ar
  41   22   27 ar
  42   23   24 ar
  43   23   57 1
  44   24   25 ar
  45   24   58 1
  46   25   26 ar
  47   25   34 1
  48   26   27 ar
  49   26   59 1
  50   27   60 1
  51   28   29 ar
  52   28   33 ar
  53   29   30 ar
  54   29   61 1
  55   30   31 ar
  56   30   62 1
  57   31   32 ar
  58   31   63 1
  59   32   33 ar
  60   32   64 1
  61   33   65 1
  62   34   35 1
  63   35   36 1
  64   35   66 1
  65   35   67 1
  66   36   37 ar
  67   36   41 ar
  68   37   38 ar
  69   37   68 1
  70   38   39 ar
  71   38   69 1
  72   39   40 ar
  73   39   70 1
  74   40   41 ar
  75   40   71 1
  76   41   72 1

#	End of record

