#	Name: ASD00844776
#	Creating user name:	WinNT
#	Creation time:	15. 06. 2019 18:50

#	Modifying user name:	WinNT
#	Modification time:	15. 06. 2019 18:50

#	Program:	/corina/corina34_cracker 3.40 0067  02.08.2006

@<TRIPOS>MOLECULE
ASD00844776
  88   93    0    0    0
SMALL
NO_CHARGES


@<TRIPOS>ATOM
   1 F1             5.6847    -2.4018    -1.8799 F       
   2 C2             0.8333     1.1971    -0.3563 C.ar    
   3 C3             1.0316    -0.1466    -0.6376 C.ar    
   4 C4             0.8496    -1.0956     0.3582 C.ar    
   5 C5             0.4717    -0.7003     1.6265 C.ar    
   6 C6             0.2742     0.6399     1.9043 C.ar    
   7 C7             0.4553     1.5874     0.9140 C.ar    
   8 C8             1.0637    -2.5564     0.0559 C.3     
   9 C9             0.6786    -3.4065     1.2479 C.2     
  10 C10            0.2610    -2.9700    -1.1791 C.3     
  11 C11           -1.1888    -2.6103    -0.9796 C.2     
  12 N12           -2.1064    -2.9769    -1.8962 N.am    
  13 O13           -1.5299    -1.9910     0.0058 O.2     
  14 C14           -3.5065    -2.5419    -1.7786 C.3     
  15 C15           -3.9372    -1.9218    -3.1121 C.3     
  16 N16           -3.6716    -2.8733    -4.1994 N.3     
  17 C17           -2.2347    -3.1520    -4.3244 C.3     
  18 C18           -1.7329    -3.8175    -3.0439 C.3     
  19 C19           -4.2264    -2.3887    -5.4703 C.3     
  20 C20           -3.8244    -3.3406    -6.6002 C.3     
  21 C21           -4.4555    -2.8644    -7.9106 C.3     
  22 N22           -5.9167    -2.8337    -7.7689 N.3     
  23 C23           -6.3289    -1.8906    -6.7214 C.3     
  24 C24           -5.7538    -2.3377    -5.3756 C.3     
  25 H25           -6.3608    -2.6144    -8.6480 H       
  26 O26           -0.4210    -3.4812     1.7543 O.2     
  27 N27            1.7836    -4.0635     1.6390 N.am    
  28 C28            2.5337    -2.8460    -0.1431 C.ar    
  29 C29            2.8898    -3.7570     0.8436 C.ar    
  30 C30            3.4619    -2.3920    -1.0527 C.ar    
  31 C31            4.7702    -2.8449    -0.9896 C.ar    
  32 C32            5.1372    -3.7535    -0.0099 C.ar    
  33 C33            4.2061    -4.2088     0.9024 C.ar    
  34 Cl34           6.7754    -4.3221     0.0709 Cl      
  35 C35            1.4529    -6.7173     2.2886 C.ar    
  36 C36            0.1985    -6.9778     1.7569 C.ar    
  37 C37            2.4093    -7.7140     2.3193 C.ar    
  38 C38            2.1172    -8.9697     1.8204 C.ar    
  39 C39            0.8673    -9.2318     1.2898 C.ar    
  40 C40           -0.0924    -8.2390     1.2571 C.ar    
  41 H41            0.6415   -10.2136     0.9006 H       
  42 O42           -0.7442    -5.9993     1.7259 O.3     
  43 C43           -2.0134    -6.3388     1.1640 C.3     
  44 C44           -2.9365    -5.1197     1.2156 C.3     
  45 S45            1.8287    -5.1149     2.9176 S.o2    
  46 O46            3.1810    -5.1611     3.3516 O.2     
  47 O47            0.7505    -4.7557     3.7706 O.2     
  48 O48            1.4030    -0.5330    -1.8864 O.3     
  49 C49            1.4882     0.4877    -2.8829 C.3     
  50 C50            2.0076    -0.1167    -4.1890 C.3     
  51 F51            3.2344    -0.7474    -3.9556 F       
  52 F52            1.0856    -1.0533    -4.6685 F       
  53 H53            0.9786     1.9381    -1.1285 H       
  54 H54            0.3300    -1.4386     2.4019 H       
  55 H55           -0.0219     0.9469     2.8964 H       
  56 H56            0.3005     2.6335     1.1334 H       
  57 H57            0.6474    -2.4488    -2.0550 H       
  58 H58            0.3512    -4.0461    -1.3275 H       
  59 H59           -4.1389    -3.4004    -1.5528 H       
  60 H60           -3.5940    -1.8001    -0.9847 H       
  61 H61           -5.0027    -1.6942    -3.0801 H       
  62 H62           -3.3740    -1.0048    -3.2856 H       
  63 H63           -2.0655    -3.8167    -5.1716 H       
  64 H64           -1.6953    -2.2179    -4.4811 H       
  65 H65           -0.6488    -3.9217    -3.0861 H       
  66 H66           -2.1941    -4.7992    -2.9365 H       
  67 H67           -3.8400    -1.3912    -5.6796 H       
  68 H68           -2.7391    -3.3484    -6.7007 H       
  69 H69           -4.1765    -4.3465    -6.3712 H       
  70 H70           -4.0923    -1.8641    -8.1461 H       
  71 H71           -4.1829    -3.5482    -8.7145 H       
  72 H72           -5.9570    -0.8948    -6.9625 H       
  73 H73           -7.4170    -1.8671    -6.6616 H       
  74 H74           -6.1362    -3.3278    -5.1273 H       
  75 H75           -6.0469    -1.6290    -4.6011 H       
  76 H76            3.1709    -1.6841    -1.8146 H       
  77 H77            4.4991    -4.9170     1.6634 H       
  78 H78            3.3862    -7.5117     2.7332 H       
  79 H79            2.8664    -9.7471     1.8447 H       
  80 H80           -1.0686    -8.4445     0.8433 H       
  81 H81           -1.8805    -6.6504     0.1280 H       
  82 H82           -2.4569    -7.1547     1.7348 H       
  83 H83           -3.0694    -4.8082     2.2516 H       
  84 H84           -2.4931    -4.3038     0.6448 H       
  85 H85           -3.9047    -5.3787     0.7870 H       
  86 H86            0.5001     0.9169    -3.0488 H       
  87 H87            2.1713     1.2676    -2.5466 H       
  88 H88            2.1402     0.6737    -4.9277 H       
@<TRIPOS>BOND
   1    1   31 1
   2    2    3 ar
   3    2    7 ar
   4    2   53 1
   5    3    4 ar
   6    3   48 1
   7    4    5 ar
   8    4    8 1
   9    5    6 ar
  10    5   54 1
  11    6    7 ar
  12    6   55 1
  13    7   56 1
  14    8    9 1
  15    8   10 1
  16    8   28 1
  17    9   26 2
  18    9   27 am
  19   10   11 1
  20   10   57 1
  21   10   58 1
  22   11   12 am
  23   11   13 2
  24   12   14 1
  25   12   18 1
  26   14   15 1
  27   14   59 1
  28   14   60 1
  29   15   16 1
  30   15   61 1
  31   15   62 1
  32   16   17 1
  33   16   19 1
  34   17   18 1
  35   17   63 1
  36   17   64 1
  37   18   65 1
  38   18   66 1
  39   19   20 1
  40   19   24 1
  41   19   67 1
  42   20   21 1
  43   20   68 1
  44   20   69 1
  45   21   22 1
  46   21   70 1
  47   21   71 1
  48   22   23 1
  49   22   25 1
  50   23   24 1
  51   23   72 1
  52   23   73 1
  53   24   74 1
  54   24   75 1
  55   27   45 am
  56   27   29 1
  57   28   29 ar
  58   28   30 ar
  59   29   33 ar
  60   30   31 ar
  61   30   76 1
  62   31   32 ar
  63   32   33 ar
  64   32   34 1
  65   33   77 1
  66   35   36 ar
  67   35   37 ar
  68   35   45 1
  69   36   42 1
  70   36   40 ar
  71   37   38 ar
  72   37   78 1
  73   38   39 ar
  74   38   79 1
  75   39   40 ar
  76   39   41 1
  77   40   80 1
  78   42   43 1
  79   43   44 1
  80   43   81 1
  81   43   82 1
  82   44   83 1
  83   44   84 1
  84   44   85 1
  85   45   46 2
  86   45   47 2
  87   48   49 1
  88   49   50 1
  89   49   86 1
  90   49   87 1
  91   50   51 1
  92   50   52 1
  93   50   88 1

#	End of record

