#	Name: ASD03330134
#	Creating user name:	WinNT
#	Creation time:	15. 06. 2019 20:36

#	Modifying user name:	WinNT
#	Modification time:	15. 06. 2019 20:36

#	Program:	/corina/corina34_cracker 3.40 0067  02.08.2006

@<TRIPOS>MOLECULE
ASD03330134
  77   81    0    0    0
SMALL
NO_CHARGES


@<TRIPOS>ATOM
   1 C1             1.1199    -6.7240    -1.8708 C.3     
   2 S2             0.6140    -5.9332    -3.4230 S.o2    
   3 O3             1.3067    -6.5064    -4.5235 O.2     
   4 O4            -0.7955    -5.7564    -3.4563 O.2     
   5 O5             1.1676    -4.5187    -3.3267 O.3     
   6 C6             2.5795    -4.4320    -3.5297 C.3     
   7 C7             3.0231    -2.9726    -3.4109 C.3     
   8 C8             4.5348    -2.8798    -3.6283 C.3     
   9 O9             4.9491    -1.5167    -3.5174 O.3     
  10 C10            6.2722    -1.2587    -3.6852 C.ar    
  11 C11            6.7409     0.0455    -3.5900 C.ar    
  12 C12            8.0822     0.3118    -3.7595 C.ar    
  13 C13            8.9714    -0.7325    -4.0270 C.ar    
  14 C14            8.4954    -2.0430    -4.1214 C.ar    
  15 C15            7.1532    -2.3006    -3.9457 C.ar    
  16 C16           10.4081    -0.4523    -4.2096 C.2     
  17 C17           11.1599     0.3849    -3.4166 C.2     
  18 C18           12.4841     0.4826    -3.7902 C.2     
  19 C19           12.8254    -0.2636    -4.8782 C.2     
  20 S20           11.4225    -1.1427    -5.4685 S.3     
  21 C21           10.5944     1.1194    -2.2598 C.ar    
  22 C22           10.2052     0.4266    -1.1128 C.ar    
  23 C23            9.6795     1.1162    -0.0383 C.ar    
  24 C24            9.5386     2.4923    -0.0981 C.ar    
  25 C25            9.9233     3.1839    -1.2338 C.ar    
  26 C26           10.4549     2.5053    -2.3117 C.ar    
  27 Cl27           8.8764     3.3535     1.2560 Cl      
  28 Cl28          10.3809    -1.2988    -1.0371 Cl      
  29 C29           14.1657    -0.3279    -5.4660 C.2     
  30 O30           15.1049     0.1995    -4.8991 O.2     
  31 N31           14.3589    -0.9710    -6.6346 N.am    
  32 C32           15.7074    -1.3815    -7.0492 C.3     
  33 C33           15.9813    -0.8297    -8.4518 C.3     
  34 C34           14.8678    -1.2810    -9.3996 C.3     
  35 C35           13.5267    -0.7250    -8.9152 C.3     
  36 C36           13.2243    -1.2805    -7.5153 C.3     
  37 C37           15.1518    -0.7684   -10.7880 C.ar    
  38 C38           14.3045     0.1556   -11.3704 C.ar    
  39 C39           14.5650     0.6257   -12.6440 C.ar    
  40 C40           15.6730     0.1722   -13.3350 C.ar    
  41 C41           16.5208    -0.7511   -12.7522 C.ar    
  42 C42           16.2627    -1.2180   -11.4769 C.ar    
  43 C43           14.8080    -2.7866    -9.4231 C.2     
  44 N44           13.8081    -3.4112   -10.0762 N.am    
  45 O45           15.6596    -3.4363    -8.8542 O.2     
  46 H46            2.2074    -6.7168    -1.7969 H       
  47 H47            0.6949    -6.1771    -1.0291 H       
  48 H48            0.7614    -7.7532    -1.8537 H       
  49 H49            3.0923    -5.0301    -2.7764 H       
  50 H50            2.8275    -4.8076    -4.5225 H       
  51 H51            2.5103    -2.3745    -4.1642 H       
  52 H52            2.7751    -2.5971    -2.4182 H       
  53 H53            5.0476    -3.4779    -2.8751 H       
  54 H54            4.7828    -3.2553    -4.6211 H       
  55 H55            6.0530     0.8519    -3.3832 H       
  56 H56            8.4456     1.3261    -3.6860 H       
  57 H57            9.1790    -2.8531    -4.3283 H       
  58 H58            6.7851    -3.3136    -4.0144 H       
  59 H59           13.1943     1.1018    -3.2624 H       
  60 H60            9.3774     0.5814     0.8500 H       
  61 H61            9.8108     4.2572    -1.2751 H       
  62 H62           10.7585     3.0467    -3.1955 H       
  63 H63           16.4420    -0.9825    -6.3497 H       
  64 H64           15.7692    -2.4696    -7.0660 H       
  65 H65           16.0089     0.2593    -8.4153 H       
  66 H66           16.9392    -1.2066    -8.8103 H       
  67 H67           13.5774     0.3631    -8.8744 H       
  68 H68           12.7376    -1.0273    -9.6036 H       
  69 H69           13.0877    -2.3606    -7.5694 H       
  70 H70           12.3200    -0.8149    -7.1234 H       
  71 H71           13.4388     0.5099   -10.8306 H       
  72 H72           13.9026     1.3471   -13.0993 H       
  73 H73           15.8762     0.5390   -14.3302 H       
  74 H74           17.3863    -1.1057   -13.2922 H       
  75 H75           16.9271    -1.9366   -11.0202 H       
  76 H76           13.1686    -2.8952   -10.5916 H       
  77 H77           13.7278    -4.3769   -10.0307 H       
@<TRIPOS>BOND
   1    1    2 1
   2    1   46 1
   3    1   47 1
   4    1   48 1
   5    2    3 2
   6    2    4 2
   7    2    5 1
   8    5    6 1
   9    6    7 1
  10    6   49 1
  11    6   50 1
  12    7    8 1
  13    7   51 1
  14    7   52 1
  15    8    9 1
  16    8   53 1
  17    8   54 1
  18    9   10 1
  19   10   11 ar
  20   10   15 ar
  21   11   12 ar
  22   11   55 1
  23   12   13 ar
  24   12   56 1
  25   13   14 ar
  26   13   16 1
  27   14   15 ar
  28   14   57 1
  29   15   58 1
  30   16   17 2
  31   16   20 1
  32   17   18 1
  33   17   21 1
  34   18   19 2
  35   18   59 1
  36   19   20 1
  37   19   29 1
  38   21   22 ar
  39   21   26 ar
  40   22   23 ar
  41   22   28 1
  42   23   24 ar
  43   23   60 1
  44   24   25 ar
  45   24   27 1
  46   25   26 ar
  47   25   61 1
  48   26   62 1
  49   29   30 2
  50   29   31 am
  51   31   32 1
  52   31   36 1
  53   32   33 1
  54   32   63 1
  55   32   64 1
  56   33   34 1
  57   33   65 1
  58   33   66 1
  59   34   35 1
  60   34   37 1
  61   34   43 1
  62   35   36 1
  63   35   67 1
  64   35   68 1
  65   36   69 1
  66   36   70 1
  67   37   38 ar
  68   37   42 ar
  69   38   39 ar
  70   38   71 1
  71   39   40 ar
  72   39   72 1
  73   40   41 ar
  74   40   73 1
  75   41   42 ar
  76   41   74 1
  77   42   75 1
  78   43   44 am
  79   43   45 2
  80   44   76 1
  81   44   77 1

#	End of record

