#	Name: ASD03731831
#	Creating user name:	WinNT
#	Creation time:	15. 06. 2019 20:46

#	Modifying user name:	WinNT
#	Modification time:	15. 06. 2019 20:46

#	Program:	/corina/corina34_cracker 3.40 0067  02.08.2006

@<TRIPOS>MOLECULE
ASD03731831
  40   41    0    0    0
SMALL
NO_CHARGES


@<TRIPOS>ATOM
   1 C1            -0.4039     1.1046    -1.9600 C.2     
   2 C2            -0.2823    -0.2735    -1.4499 C.ar    
   3 C3             0.9016    -0.9940    -1.6486 C.ar    
   4 C4             1.0100    -2.2837    -1.1691 C.ar    
   5 C5            -0.0530    -2.8656    -0.4908 C.ar    
   6 C6            -1.2313    -2.1522    -0.2915 C.ar    
   7 C7            -1.3467    -0.8627    -0.7613 C.ar    
   8 O8             0.5250     1.6171    -2.5543 O.2     
   9 N9            -1.5465     1.7943    -1.7723 N.am    
  10 S10           -1.6830     3.3420    -2.3452 S.o2    
  11 O11           -2.9851     3.7492    -1.9477 O.2     
  12 O12           -0.5261     4.0022    -1.8504 O.2     
  13 C13           -1.5936     3.1667    -4.1485 C.3     
  14 F14            1.9356    -0.4281    -2.3088 F       
  15 O15            0.0574    -4.1341    -0.0213 O.3     
  16 C16            1.2601    -4.7567    -0.1412 C.ar    
  17 C17            2.2108    -4.6280     0.8609 C.ar    
  18 C18            3.4326    -5.2605     0.7390 C.ar    
  19 C19            3.7092    -6.0240    -0.3856 C.ar    
  20 C20            2.7587    -6.1527    -1.3876 C.ar    
  21 C21            1.5346    -5.5253    -1.2630 C.ar    
  22 O22            4.9124    -6.6459    -0.5059 O.3     
  23 C23            5.1292    -7.4156    -1.6902 C.3     
  24 C24            6.5276    -8.0349    -1.6470 C.3     
  25 Cl25          -2.5555    -2.8867     0.5573 Cl      
  26 H26            1.9224    -2.8410    -1.3218 H       
  27 H27           -2.2600    -0.3089    -0.6015 H       
  28 H28           -2.2889     1.3840    -1.3017 H       
  29 H29           -2.4100     2.5319    -4.4928 H       
  30 H30           -1.6762     4.1491    -4.6135 H       
  31 H31           -0.6408     2.7139    -4.4227 H       
  32 H32            1.9957    -4.0330     1.7362 H       
  33 H33            4.1727    -5.1604     1.5191 H       
  34 H34            2.9742    -6.7472    -2.2631 H       
  35 H35            0.7927    -5.6295    -2.0409 H       
  36 H36            4.3828    -8.2077    -1.7505 H       
  37 H37            5.0448    -6.7695    -2.5640 H       
  38 H38            7.2741    -7.2429    -1.5867 H       
  39 H39            6.6121    -8.6810    -0.7732 H       
  40 H40            6.6931    -8.6220    -2.5504 H       
@<TRIPOS>BOND
   1    1    2 1
   2    1    8 2
   3    1    9 am
   4    2    3 ar
   5    2    7 ar
   6    3    4 ar
   7    3   14 1
   8    4    5 ar
   9    4   26 1
  10    5    6 ar
  11    5   15 1
  12    6    7 ar
  13    6   25 1
  14    7   27 1
  15    9   10 am
  16    9   28 1
  17   10   11 2
  18   10   12 2
  19   10   13 1
  20   13   29 1
  21   13   30 1
  22   13   31 1
  23   15   16 1
  24   16   17 ar
  25   16   21 ar
  26   17   18 ar
  27   17   32 1
  28   18   19 ar
  29   18   33 1
  30   19   20 ar
  31   19   22 1
  32   20   21 ar
  33   20   34 1
  34   21   35 1
  35   22   23 1
  36   23   24 1
  37   23   36 1
  38   23   37 1
  39   24   38 1
  40   24   39 1
  41   24   40 1

#	End of record

