#	Name: ASD07130011
#	Creating user name:	WinNT
#	Creation time:	15. 06. 2019 21:09

#	Modifying user name:	WinNT
#	Modification time:	15. 06. 2019 21:09

#	Program:	/corina/corina34_cracker 3.40 0067  02.08.2006

@<TRIPOS>MOLECULE
ASD07130011
  23   22    0    0    0
SMALL
NO_CHARGES


@<TRIPOS>ATOM
   1 C1            -0.0225     1.8057     0.0120 C.3     
   2 S2             0.0021    -0.0041     0.0020 S.3     
   3 C3            -1.7288    -0.3336     0.0168 C.2     
   4 N4            -2.1817    -1.6326     0.0141 N.pl3   
   5 N5            -2.5806     0.6540     0.0302 N.2     
   6 C6             1.4129     2.3353     0.0011 C.3     
   7 C7             1.3922     3.8652     0.0095 C.3     
   8 S8             3.0902     4.4917    -0.0033 S.3     
   9 C9             2.7768     6.2255     0.0090 C.2     
  10 N10            3.8267     7.1144     0.0037 N.pl3   
  11 N11            1.5493     6.6662     0.0231 N.2     
  12 H12           -0.5497     2.1668    -0.8711 H       
  13 H13           -0.5327     2.1573     0.9088 H       
  14 H14           -1.5482    -2.3671     0.0041 H       
  15 H15           -3.1345    -1.8140     0.0222 H       
  16 H16           -3.5334     0.4726     0.0383 H       
  17 H17            1.9401     1.9742     0.8842 H       
  18 H18            1.9231     1.9838    -0.8957 H       
  19 H19            0.8650     4.2262    -0.8735 H       
  20 H20            0.8820     4.2167     0.9063 H       
  21 H21            4.7396     6.7866    -0.0067 H       
  22 H22            3.6541     8.0689     0.0105 H       
  23 H23            1.3767     7.6207     0.0298 H       
@<TRIPOS>BOND
   1    1    2 1
   2    1    6 1
   3    1   12 1
   4    1   13 1
   5    2    3 1
   6    3    4 1
   7    3    5 2
   8    4   14 1
   9    4   15 1
  10    5   16 1
  11    6    7 1
  12    6   17 1
  13    6   18 1
  14    7    8 1
  15    7   19 1
  16    7   20 1
  17    8    9 1
  18    9   10 1
  19    9   11 2
  20   10   21 1
  21   10   22 1
  22   11   23 1

#	End of record

