#	Name: ASD04560005
#	Creating user name:	WinNT
#	Creation time:	15. 06. 2019 20:49

#	Modifying user name:	WinNT
#	Modification time:	15. 06. 2019 20:49

#	Program:	/corina/corina34_cracker 3.40 0067  02.08.2006

@<TRIPOS>MOLECULE
ASD04560005
  48   50    0    0    0
SMALL
NO_CHARGES


@<TRIPOS>ATOM
   1 C1            -0.1500     1.5523     0.3104 C.ar    
   2 C2            -0.1678     0.1818     0.3354 C.ar    
   3 C3             1.0197    -0.5341     0.2014 C.ar    
   4 C4             2.2283     0.1399     0.0415 C.ar    
   5 C5             2.2522     1.5103     0.0156 C.ar    
   6 C6             1.0617     2.2317     0.1500 C.ar    
   7 C7             1.0842     3.7058     0.1226 C.2     
   8 O8             2.1386     4.2954    -0.0169 O.2     
   9 N9            -0.0639     4.3997     0.2522 N.am    
  10 C10           -0.0313     5.7961     0.3420 C.ar    
  11 C11           -1.0505     6.5530    -0.2209 C.ar    
  12 C12           -1.0166     7.9307    -0.1307 C.ar    
  13 C13            0.0327     8.5574     0.5204 C.ar    
  14 C14            1.0500     7.8045     1.0824 C.ar    
  15 C15            1.0173     6.4263     0.9991 C.ar    
  16 F16            0.0642     9.9052     0.6071 F       
  17 S17            0.9930    -2.2956     0.2347 S.3     
  18 C18            2.7408    -2.7342     0.0268 C.3     
  19 C19            2.8867    -4.2341     0.0344 C.ar    
  20 C20            2.7100    -4.9590    -1.1449 C.ar    
  21 C21            2.8458    -6.3482    -1.1341 C.ar    
  22 C22            3.1536    -6.9993     0.0393 C.ar    
  23 C23            3.3286    -6.2744     1.2130 C.ar    
  24 C24            3.2000    -4.8902     1.2039 C.ar    
  25 B25            2.3585    -4.2135    -2.4812 Du      
  26 O26            2.6797    -4.8067    -3.7307 O.3     
  27 O27            1.7195    -2.9461    -2.4402 O.3     
  28 O28            3.6315    -6.9187     2.3680 O.3     
  29 C29            3.7549    -8.3410     2.3043 C.3     
  30 F30            4.7723    -8.6810     1.4063 F       
  31 F31            4.0676    -8.8392     3.5736 F       
  32 F32            2.5458    -8.8951     1.8706 F       
  33 H33           -1.0715     2.1067     0.4099 H       
  34 H34           -1.1032    -0.3434     0.4596 H       
  35 H35            3.1474    -0.4178    -0.0619 H       
  36 H36            3.1896     2.0323    -0.1080 H       
  37 H37           -0.9128     3.9314     0.2833 H       
  38 H38           -1.8688     6.0647    -0.7291 H       
  39 H39           -1.8088     8.5198    -0.5686 H       
  40 H40            1.8674     8.2952     1.5897 H       
  41 H41            1.8109     5.8394     1.4375 H       
  42 H42            3.1044    -2.3386    -0.9216 H       
  43 H43            3.3220    -2.3085     0.8448 H       
  44 H44            2.7092    -6.9118    -2.0452 H       
  45 H45            3.2588    -8.0741     0.0483 H       
  46 H46            3.3365    -4.3298     2.1170 H       
  47 H47            2.4250    -4.2736    -4.4962 H       
  48 H48            1.5437    -2.5659    -3.3118 H       
@<TRIPOS>BOND
   1    1    2 ar
   2    1    6 ar
   3    1   33 1
   4    2    3 ar
   5    2   34 1
   6    3    4 ar
   7    3   17 1
   8    4    5 ar
   9    4   35 1
  10    5    6 ar
  11    5   36 1
  12    6    7 1
  13    7    8 2
  14    7    9 am
  15    9   10 1
  16    9   37 1
  17   10   11 ar
  18   10   15 ar
  19   11   12 ar
  20   11   38 1
  21   12   13 ar
  22   12   39 1
  23   13   14 ar
  24   13   16 1
  25   14   15 ar
  26   14   40 1
  27   15   41 1
  28   17   18 1
  29   18   19 1
  30   18   42 1
  31   18   43 1
  32   19   20 ar
  33   19   24 ar
  34   20   21 ar
  35   20   25 1
  36   21   22 ar
  37   21   44 1
  38   22   23 ar
  39   22   45 1
  40   23   24 ar
  41   23   28 1
  42   24   46 1
  43   25   26 1
  44   25   27 1
  45   26   47 1
  46   27   48 1
  47   28   29 1
  48   29   30 1
  49   29   31 1
  50   29   32 1

#	End of record

