#	Name: ASD03090232
#	Creating user name:	WinNT
#	Creation time:	15. 06. 2019 20:28

#	Modifying user name:	WinNT
#	Modification time:	15. 06. 2019 20:28

#	Program:	/corina/corina34_cracker 3.40 0067  02.08.2006

@<TRIPOS>MOLECULE
ASD03090232
  39   41    0    0    0
SMALL
NO_CHARGES


@<TRIPOS>ATOM
   1 N1             0.4465     1.5141     1.4662 N.ar    
   2 C2             0.4083     0.1960     1.4314 C.ar    
   3 C3             1.5350    -0.5376     1.1210 C.ar    
   4 C4             2.7281     0.1375     0.8414 C.ar    
   5 C5             2.7226     1.5356     0.8900 C.ar    
   6 C6             1.5502     2.1893     1.2093 C.ar    
   7 C7             3.9620    -0.6070     0.5040 C.2     
   8 N8             5.7410    -3.4560    -0.5315 N.pl3   
   9 C9             4.8144    -4.4456    -0.8757 C.ar    
  10 C10            3.5980    -4.0916    -1.4445 C.ar    
  11 C11            2.6843    -5.0706    -1.7835 C.ar    
  12 C12            2.9804    -6.4039    -1.5563 C.ar    
  13 C13            4.1929    -6.7592    -0.9891 C.ar    
  14 C14            5.1118    -5.7843    -0.6543 C.ar    
  15 N15            4.0264    -1.8631     0.1103 N.2     
  16 C16            5.2978    -2.2023    -0.1060 C.2     
  17 N17            6.0662    -1.1672     0.1463 N.2     
  18 N18            5.2211    -0.1168     0.5396 N.pl3   
  19 C19            5.6249     1.2390     0.9205 C.3     
  20 C20            5.7288     2.1111    -0.3322 C.3     
  21 O21            6.1226     3.4336     0.0394 O.3     
  22 F22            2.0850    -7.3596    -1.8879 F       
  23 C23            4.5120    -8.2112    -0.7426 C.3     
  24 F24            5.7827    -8.3183    -0.1672 F       
  25 F25            3.5598    -8.7572     0.1249 F       
  26 F26            4.4897    -8.9063    -1.9565 F       
  27 H27           -0.5174    -0.3160     1.6491 H       
  28 H28            1.4966    -1.6165     1.0947 H       
  29 H29            3.6227     2.0949     0.6811 H       
  30 H30            1.5358     3.2685     1.2490 H       
  31 H31            6.6916    -3.6408    -0.5883 H       
  32 H32            3.3663    -3.0517    -1.6213 H       
  33 H33            1.7382    -4.7958    -2.2259 H       
  34 H34            6.0573    -6.0619    -0.2124 H       
  35 H35            4.8828     1.6624     1.5975 H       
  36 H36            6.5933     1.2030     1.4196 H       
  37 H37            6.4708     1.6878    -1.0092 H       
  38 H38            4.7604     2.1471    -0.8313 H       
  39 H39            6.2086     4.0427    -0.7068 H       
@<TRIPOS>BOND
   1    1    2 ar
   2    1    6 ar
   3    2    3 ar
   4    2   27 1
   5    3    4 ar
   6    3   28 1
   7    4    5 ar
   8    4    7 1
   9    5    6 ar
  10    5   29 1
  11    6   30 1
  12    7   15 2
  13    7   18 1
  14    8    9 1
  15    8   16 1
  16    8   31 1
  17    9   10 ar
  18    9   14 ar
  19   10   11 ar
  20   10   32 1
  21   11   12 ar
  22   11   33 1
  23   12   13 ar
  24   12   22 1
  25   13   14 ar
  26   13   23 1
  27   14   34 1
  28   15   16 1
  29   16   17 2
  30   17   18 1
  31   18   19 1
  32   19   20 1
  33   19   35 1
  34   19   36 1
  35   20   21 1
  36   20   37 1
  37   20   38 1
  38   21   39 1
  39   23   24 1
  40   23   25 1
  41   23   26 1

#	End of record

