#	Name: ASD01028333
#	Creating user name:	WinNT
#	Creation time:	15. 06. 2019 18:57

#	Modifying user name:	WinNT
#	Modification time:	15. 06. 2019 18:57

#	Program:	/corina/corina34_cracker 3.40 0067  02.08.2006

@<TRIPOS>MOLECULE
ASD01028333
  43   47    0    0    0
SMALL
NO_CHARGES


@<TRIPOS>ATOM
   1 C1            -0.0171     1.4118     0.0098 C.ar    
   2 C2             0.0021    -0.0041     0.0020 C.ar    
   3 C3             1.2105     2.1116     0.0018 C.ar    
   4 C4             2.3793     1.3714    -0.0133 C.ar    
   5 C5             2.3160    -0.0162    -0.0202 C.ar    
   6 N6             1.1704    -0.6565    -0.0123 N.ar    
   7 O7             1.2420     3.4670     0.0084 O.3     
   8 C8             2.5299     4.0861    -0.0005 C.3     
   9 C9             2.3673     5.5842     0.0086 C.2     
  10 N10            2.2915     6.3711     1.1038 N.pl3   
  11 C11            2.1478     7.6560     0.6387 C.2     
  12 N12            2.1436     7.5869    -0.6827 N.2     
  13 N13            2.2796     6.3588    -1.0443 N.2     
  14 N14            2.3301     6.1233     2.4774 N.2     
  15 C15            2.2295     7.1159     3.3377 C.2     
  16 C16            2.0808     8.4480     2.8889 C.2     
  17 C17            2.0410     8.7174     1.5585 C.2     
  18 C18            2.2720     6.8338     4.7865 C.2     
  19 C19            2.4092     5.6106     5.3378 C.2     
  20 C20           -1.2152    -0.7043     0.0100 C.ar    
  21 C21           -2.4012    -0.0066     0.0251 C.ar    
  22 C22           -2.4085     1.3917     0.0326 C.ar    
  23 O23           -3.5786    -0.6840     0.0324 O.3     
  24 C24           -1.2431     2.0938     0.0310 C.ar    
  25 C25           -4.7758     0.0961     0.0481 C.3     
  26 C26            2.4220     5.5976     6.7162 C.2     
  27 C27            2.2966     6.7978     7.2952 C.2     
  28 S28            2.1591     8.0418     6.0599 S.3     
  29 Cl29           2.2796     7.0840     9.0074 Cl      
  30 H30            3.3370     1.8705    -0.0202 H       
  31 H31            3.2348    -0.5838    -0.0321 H       
  32 H32            3.0883     3.7758     0.8827 H       
  33 H33            3.0716     3.7849    -0.8972 H       
  34 H34            1.9995     9.2525     3.6049 H       
  35 H35            1.9275     9.7333     1.2099 H       
  36 H36            2.5015     4.7120     4.7459 H       
  37 H37           -1.2205    -1.7843     0.0039 H       
  38 H38           -3.3501     1.9205     0.0445 H       
  39 H39           -1.2617     3.1736     0.0369 H       
  40 H40           -4.7913     0.7199     0.9418 H       
  41 H41           -4.8081     0.7300    -0.8381 H       
  42 H42           -5.6412    -0.5666     0.0525 H       
  43 H43            2.5252     4.6863     7.2866 H       
@<TRIPOS>BOND
   1    1    2 ar
   2    1    3 ar
   3    1   24 ar
   4    2   20 ar
   5    2    6 ar
   6    3    4 ar
   7    3    7 1
   8    4    5 ar
   9    4   30 1
  10    5    6 ar
  11    5   31 1
  12    7    8 1
  13    8    9 1
  14    8   32 1
  15    8   33 1
  16    9   10 1
  17    9   13 2
  18   10   11 1
  19   10   14 1
  20   11   12 2
  21   11   17 1
  22   12   13 1
  23   14   15 2
  24   15   16 1
  25   15   18 1
  26   16   17 2
  27   16   34 1
  28   17   35 1
  29   18   19 2
  30   18   28 1
  31   19   26 1
  32   19   36 1
  33   20   21 ar
  34   20   37 1
  35   21   22 ar
  36   21   23 1
  37   22   24 ar
  38   22   38 1
  39   23   25 1
  40   24   39 1
  41   25   40 1
  42   25   41 1
  43   25   42 1
  44   26   27 2
  45   26   43 1
  46   27   28 1
  47   27   29 1

#	End of record

