#	Name: ASD02198448
#	Creating user name:	WinNT
#	Creation time:	15. 06. 2019 20:19

#	Modifying user name:	WinNT
#	Modification time:	15. 06. 2019 20:19

#	Program:	/corina/corina34_cracker 3.40 0067  02.08.2006

@<TRIPOS>MOLECULE
ASD02198448
  49   50    0    0    0
SMALL
NO_CHARGES


@<TRIPOS>ATOM
   1 C1            -0.0505     1.2524    -0.1488 C.ar    
   2 C2            -0.0911    -0.1379    -0.2683 C.ar    
   3 C3            -1.3013    -0.7978    -0.2824 C.ar    
   4 C4            -2.4939    -0.0718    -0.1766 C.ar    
   5 C5            -2.4492     1.3274    -0.0565 C.ar    
   6 C6            -1.2250     1.9786    -0.0383 C.ar    
   7 S7            -3.7434     3.5514    -0.6543 S.o2    
   8 N8            -3.6286     2.0564     0.0487 N.am    
   9 C9            -4.5678     3.0882    -3.2144 C.ar    
  10 C10           -3.4896     3.3351    -2.3845 C.ar    
  11 O11           -5.0930     3.9668    -0.4956 O.2     
  12 O12           -2.6371     4.3050    -0.1775 O.2     
  13 C13           -4.3700     2.9184    -4.5749 C.ar    
  14 C14           -3.0846     2.9968    -5.1033 C.ar    
  15 C15           -2.0089     3.2443    -4.2664 C.ar    
  16 C16           -2.2133     3.4129    -2.9091 C.ar    
  17 O17           -2.8853     2.8303    -6.4382 O.3     
  18 O18           -5.4292     2.6751    -5.3924 O.3     
  19 C19           -1.5396     2.9241    -6.9098 C.3     
  20 C20           -6.7188     2.6076    -4.7806 C.3     
  21 C21           -3.7875    -0.7705    -0.1916 C.2     
  22 O22           -4.8213    -0.1377    -0.0996 O.2     
  23 O23           -3.8271    -2.1130    -0.3074 O.3     
  24 C24           -5.1388    -2.7356    -0.3151 C.3     
  25 O25            1.1455     1.8951    -0.1352 O.3     
  26 C26            1.1158     3.3183    -0.0104 C.3     
  27 C27            0.9541    -2.2634    -0.4910 C.3     
  28 O28            1.0677    -0.8439    -0.3716 O.3     
  29 H29           -1.3296    -1.8734    -0.3753 H       
  30 H30           -1.1875     3.0540     0.0543 H       
  31 H31           -4.3841     1.6892     0.5338 H       
  32 H32           -5.5635     3.0234    -2.8013 H       
  33 H33           -1.0106     3.3057    -4.6738 H       
  34 H34           -1.3738     3.6062    -2.2577 H       
  35 H35           -1.1401     3.9106    -6.6748 H       
  36 H36           -0.9308     2.1607    -6.4254 H       
  37 H37           -1.5215     2.7724    -7.9891 H       
  38 H38           -6.9387     3.5562    -4.2907 H       
  39 H39           -7.4725     2.4089    -5.5425 H       
  40 H40           -6.7290     1.8062    -4.0418 H       
  41 H41           -5.6551    -2.5067     0.6172 H       
  42 H42           -5.7181    -2.3520    -1.1549 H       
  43 H43           -5.0278    -3.8155    -0.4134 H       
  44 H44            0.5635     3.7450    -0.8476 H       
  45 H45            0.6262     3.5909     0.9245 H       
  46 H46            2.1350     3.7046    -0.0129 H       
  47 H47            0.4454    -2.6623     0.3866 H       
  48 H48            0.3813    -2.5081    -1.3855 H       
  49 H49            1.9490    -2.7025    -0.5652 H       
@<TRIPOS>BOND
   1    1    2 ar
   2    1   25 1
   3    1    6 ar
   4    2    3 ar
   5    2   28 1
   6    3    4 ar
   7    3   29 1
   8    4    5 ar
   9    4   21 1
  10    5    6 ar
  11    5    8 1
  12    6   30 1
  13    7    8 am
  14    7   11 2
  15    7   12 2
  16    7   10 1
  17    8   31 1
  18    9   10 ar
  19    9   13 ar
  20    9   32 1
  21   10   16 ar
  22   13   14 ar
  23   13   18 1
  24   14   15 ar
  25   14   17 1
  26   15   16 ar
  27   15   33 1
  28   16   34 1
  29   17   19 1
  30   18   20 1
  31   19   35 1
  32   19   36 1
  33   19   37 1
  34   20   38 1
  35   20   39 1
  36   20   40 1
  37   21   22 2
  38   21   23 1
  39   23   24 1
  40   24   41 1
  41   24   42 1
  42   24   43 1
  43   25   26 1
  44   26   44 1
  45   26   45 1
  46   26   46 1
  47   27   28 1
  48   27   47 1
  49   27   48 1
  50   27   49 1

#	End of record

