#	Name: ASD02560429
#	Creating user name:	WinNT
#	Creation time:	15. 06. 2019 20:25

#	Modifying user name:	WinNT
#	Modification time:	15. 06. 2019 20:25

#	Program:	/corina/corina34_cracker 3.40 0067  02.08.2006

@<TRIPOS>MOLECULE
ASD02560429
  49   53    0    0    0
SMALL
NO_CHARGES


@<TRIPOS>ATOM
   1 C1             0.7984     1.8706    -2.2488 C.2     
   2 C2             0.8822     0.4564    -2.6240 C.ar    
   3 C3             1.7976    -0.3758    -1.9569 C.ar    
   4 N4             2.6027     0.1508    -0.9590 N.pl3   
   5 C5             2.5172     1.4780    -0.6134 C.2     
   6 C6             1.6042     2.3399    -1.2697 C.2     
   7 C7             3.5593    -0.4194    -0.1641 C.2     
   8 C8             4.0409     0.5806     0.6565 C.2     
   9 N9             3.3864     1.7151     0.3556 N.2     
  10 C10            5.0941     0.4298     1.6875 C.ar    
  11 N11            3.9672    -1.7496    -0.1795 N.3     
  12 C12            5.2512    -1.8985    -0.8775 C.3     
  13 C13            6.1524     1.3382     1.7465 C.ar    
  14 C14            5.0293    -0.6167     2.6066 C.ar    
  15 C15            6.0131    -0.7518     3.5651 C.ar    
  16 C16            7.0623     0.1481     3.6156 C.ar    
  17 C17            7.1303     1.1921     2.7101 C.ar    
  18 Cl18           6.2390     2.6481     0.6106 Cl      
  19 C19            5.9774    -3.1378    -0.3506 C.3     
  20 C20            7.3147    -3.2929    -1.0776 C.3     
  21 C21            7.0641    -3.4483    -2.5789 C.3     
  22 C22            6.3379    -2.2090    -3.1057 C.3     
  23 C23            5.0006    -2.0539    -2.3788 C.3     
  24 C24            0.0674    -0.0714    -3.6306 C.ar    
  25 C25            0.1694    -1.4043    -3.9600 C.ar    
  26 C26            1.0738    -2.2236    -3.3001 C.ar    
  27 C27            1.8843    -1.7175    -2.3055 C.ar    
  28 H28            0.1056     2.5299    -2.7506 H       
  29 H29            1.5506     3.3803    -0.9849 H       
  30 H30            4.0190    -2.1228     0.7565 H       
  31 H31            5.8651    -1.0153    -0.7011 H       
  32 H32            4.2106    -1.3200     2.5687 H       
  33 H33            5.9634    -1.5620     4.2775 H       
  34 H34            7.8296     0.0378     4.3677 H       
  35 H35            7.9522     1.8914     2.7544 H       
  36 H36            6.1559    -3.0271     0.7189 H       
  37 H37            5.3634    -4.0211    -0.5270 H       
  38 H38            7.9286    -2.4097    -0.9012 H       
  39 H39            7.8320    -4.1758    -0.7022 H       
  40 H40            8.0168    -3.5588    -3.0967 H       
  41 H41            6.4502    -4.3315    -2.7552 H       
  42 H42            6.9518    -1.3257    -2.9294 H       
  43 H43            6.1594    -2.3197    -4.1753 H       
  44 H44            4.3867    -2.9372    -2.5552 H       
  45 H45            4.4832    -1.1710    -2.7541 H       
  46 H46           -0.6381     0.5630    -4.1464 H       
  47 H47           -0.4589    -1.8146    -4.7368 H       
  48 H48            1.1438    -3.2676    -3.5677 H       
  49 H49            2.5853    -2.3637    -1.7981 H       
@<TRIPOS>BOND
   1    1    2 1
   2    1    6 2
   3    1   28 1
   4    2    3 ar
   5    2   24 ar
   6    3    4 1
   7    3   27 ar
   8    4    5 1
   9    4    7 1
  10    5    6 1
  11    5    9 2
  12    6   29 1
  13    7    8 2
  14    7   11 1
  15    8    9 1
  16    8   10 1
  17   10   14 ar
  18   10   13 ar
  19   11   12 1
  20   11   30 1
  21   12   19 1
  22   12   23 1
  23   12   31 1
  24   13   18 1
  25   13   17 ar
  26   14   15 ar
  27   14   32 1
  28   15   16 ar
  29   15   33 1
  30   16   17 ar
  31   16   34 1
  32   17   35 1
  33   19   20 1
  34   19   36 1
  35   19   37 1
  36   20   21 1
  37   20   38 1
  38   20   39 1
  39   21   22 1
  40   21   40 1
  41   21   41 1
  42   22   23 1
  43   22   42 1
  44   22   43 1
  45   23   44 1
  46   23   45 1
  47   24   25 ar
  48   24   46 1
  49   25   26 ar
  50   25   47 1
  51   26   27 ar
  52   26   48 1
  53   27   49 1

#	End of record

