#	Name: ASD01121018
#	Creating user name:	WinNT
#	Creation time:	15. 06. 2019 18:59

#	Modifying user name:	WinNT
#	Modification time:	15. 06. 2019 18:59

#	Program:	/corina/corina34_cracker 3.40 0067  02.08.2006

@<TRIPOS>MOLECULE
ASD01121018
  47   48    0    0    0
SMALL
NO_CHARGES


@<TRIPOS>ATOM
   1 C1            -0.0386     1.3397    -0.0021 C.ar    
   2 C2             1.1053     2.1220    -0.0010 C.ar    
   3 C3             0.0867    -0.0467    -0.0143 C.ar    
   4 C4             1.0094     3.6259     0.0125 C.3     
   5 C5             2.3400     1.4909    -0.0123 C.ar    
   6 N6             1.2819    -0.6164    -0.0248 N.ar    
   7 C7             2.3935     0.1041    -0.0242 C.ar    
   8 N8             3.6318    -0.5383    -0.0355 N.am    
   9 C9             3.6951    -1.8813     0.0584 C.2     
  10 O10            2.6818    -2.5259     0.2476 O.2     
  11 N11            4.8818    -2.5097    -0.0575 N.am    
  12 S12            4.9596    -4.1598     0.0579 S.o2    
  13 C13            4.0722    -4.8210    -1.3132 C.2     
  14 O14            6.3222    -4.5119    -0.1385 O.2     
  15 O15            4.2247    -4.5158     1.2209 O.2     
  16 S16            2.3554    -5.2031    -1.3207 S.3     
  17 C17            4.5985    -5.1029    -2.5060 C.2     
  18 C18            2.4534    -5.7476    -2.9903 C.2     
  19 C19            3.7054    -5.6155    -3.4311 C.2     
  20 C20            1.2986    -6.2777    -3.8004 C.3     
  21 C21            4.1168    -5.9970    -4.8298 C.3     
  22 C22            1.2030    -7.7941    -3.6207 C.3     
  23 O23            0.0903    -8.3049    -4.4012 O.3     
  24 H24            4.4472    -0.0184    -0.1110 H       
  25 H25            5.6902    -1.9954    -0.2084 H       
  26 N26           -1.0552    -0.8416    -0.0150 N.pl3   
  27 F27            2.2961     4.1752     0.0108 F       
  28 F28            0.3159     4.0592    -1.1226 F       
  29 F29            0.3274     4.0394     1.1619 F       
  30 F30           -1.2606     1.9155     0.0142 F       
  31 C31           -0.1319    -9.6278    -4.3525 C.2     
  32 C32           -1.2691   -10.2302    -5.1367 C.3     
  33 O33            0.5798   -10.3355    -3.6798 O.2     
  34 H34            3.2502     2.0723    -0.0122 H       
  35 H35            5.6422    -4.9430    -2.7329 H       
  36 H36            0.3730    -5.8126    -3.4612 H       
  37 H37            1.4569    -6.0460    -4.8537 H       
  38 H38            4.0020    -5.1371    -5.4896 H       
  39 H39            5.1589    -6.3166    -4.8275 H       
  40 H40            3.4872    -6.8133    -5.1838 H       
  41 H41            2.1286    -8.2593    -3.9599 H       
  42 H42            1.0446    -8.0259    -2.5674 H       
  43 H43           -1.9332    -0.4292    -0.0070 H       
  44 H44           -0.9734    -1.8081    -0.0235 H       
  45 H45           -0.9174   -10.5102    -6.1297 H       
  46 H46           -1.6385   -11.1155    -4.6191 H       
  47 H47           -2.0737    -9.5007    -5.2285 H       
@<TRIPOS>BOND
   1    1    2 ar
   2    1    3 ar
   3    1   30 1
   4    2    4 1
   5    2    5 ar
   6    3    6 ar
   7    3   26 1
   8    4   27 1
   9    4   28 1
  10    4   29 1
  11    5    7 ar
  12    5   34 1
  13    6    7 ar
  14    7    8 1
  15    8   24 1
  16    8    9 am
  17    9   10 2
  18    9   11 am
  19   11   25 1
  20   11   12 am
  21   12   13 1
  22   12   15 2
  23   12   14 2
  24   13   16 1
  25   13   17 2
  26   16   18 1
  27   17   19 1
  28   17   35 1
  29   18   19 2
  30   18   20 1
  31   19   21 1
  32   20   22 1
  33   20   36 1
  34   20   37 1
  35   21   38 1
  36   21   39 1
  37   21   40 1
  38   22   23 1
  39   22   41 1
  40   22   42 1
  41   23   31 1
  42   26   43 1
  43   26   44 1
  44   31   32 1
  45   31   33 2
  46   32   45 1
  47   32   46 1
  48   32   47 1

#	End of record

