#	Name: ASD01910105
#	Creating user name:	WinNT
#	Creation time:	15. 06. 2019 19:55

#	Modifying user name:	WinNT
#	Modification time:	15. 06. 2019 19:55

#	Program:	/corina/corina34_cracker 3.40 0067  02.08.2006

@<TRIPOS>MOLECULE
ASD01910105
  46   49    0    0    0
SMALL
NO_CHARGES


@<TRIPOS>ATOM
   1 C1             0.1110     0.4853     0.4002 C.ar    
   2 C2             0.3452    -0.8757     0.4490 C.ar    
   3 C3             1.6396    -1.3689     0.3872 C.ar    
   4 C4             2.7046    -0.4902     0.2753 C.ar    
   5 C5             2.4657     0.8984     0.2251 C.ar    
   6 C6             1.1672     1.3767     0.2883 C.ar    
   7 C7             4.1712    -0.6516     0.1864 C.2     
   8 N8             4.7317     0.5677     0.0916 N.am    
   9 C9             3.7953     1.5334     0.1074 C.2     
  10 C10            6.1724     0.8117    -0.0141 C.3     
  11 C11            6.5995     0.6821    -1.4535 C.ar    
  12 C12            6.4506     1.7553    -2.3219 C.ar    
  13 C13            6.8458     1.6326    -3.6479 C.ar    
  14 C14            7.3855     0.4443    -4.0990 C.ar    
  15 C15            7.5328    -0.6238    -3.2313 C.ar    
  16 C16            7.1448    -0.5026    -1.9087 C.ar    
  17 N17            5.9031     2.9579    -1.8624 N.am    
  18 C18            5.3568     3.8269    -2.7358 C.2     
  19 C19            4.8844     5.1469    -2.2674 C.ar    
  20 C20            5.0026     5.4965    -0.9214 C.ar    
  21 C21            4.5601     6.7304    -0.4909 C.ar    
  22 C22            3.9998     7.6200    -1.3901 C.ar    
  23 C23            3.8792     7.2795    -2.7259 C.ar    
  24 C24            4.3233     6.0516    -3.1706 C.ar    
  25 O25            5.2526     3.5251    -3.9088 O.2     
  26 O26            4.0070     2.7272     0.0371 O.2     
  27 O27            4.7701    -1.7081     0.1978 O.2     
  28 Cl28           8.2117    -2.1163    -3.8017 Cl      
  29 C29            4.1916     5.6826    -4.6258 C.3     
  30 F30            3.5934     6.7382    -5.3222 F       
  31 F31            5.4600     5.4311    -5.1597 F       
  32 F32            3.3992     4.5360    -4.7462 F       
  33 H33           -0.9020     0.8570     0.4451 H       
  34 H34           -0.4858    -1.5600     0.5363 H       
  35 H35            1.8167    -2.4335     0.4265 H       
  36 H36            0.9782     2.4393     0.2499 H       
  37 H37            6.3978     1.8167     0.3427 H       
  38 H38            6.7099     0.0821     0.5916 H       
  39 H39            6.7308     2.4657    -4.3255 H       
  40 H40            7.6926     0.3483    -5.1299 H       
  41 H41            7.2609    -1.3376    -1.2336 H       
  42 H42            5.9167     3.1663    -0.9151 H       
  43 H43            5.4392     4.8026    -0.2183 H       
  44 H44            4.6510     7.0022     0.5504 H       
  45 H45            3.6547     8.5845    -1.0479 H       
  46 H46            3.4406     7.9784    -3.4227 H       
@<TRIPOS>BOND
   1    1    2 ar
   2    1    6 ar
   3    1   33 1
   4    2    3 ar
   5    2   34 1
   6    3    4 ar
   7    3   35 1
   8    4    5 ar
   9    4    7 1
  10    5    6 ar
  11    5    9 1
  12    6   36 1
  13    7    8 am
  14    7   27 2
  15    8    9 am
  16    8   10 1
  17    9   26 2
  18   10   11 1
  19   10   37 1
  20   10   38 1
  21   11   12 ar
  22   11   16 ar
  23   12   13 ar
  24   12   17 1
  25   13   14 ar
  26   13   39 1
  27   14   15 ar
  28   14   40 1
  29   15   16 ar
  30   15   28 1
  31   16   41 1
  32   17   18 am
  33   17   42 1
  34   18   19 1
  35   18   25 2
  36   19   20 ar
  37   19   24 ar
  38   20   21 ar
  39   20   43 1
  40   21   22 ar
  41   21   44 1
  42   22   23 ar
  43   22   45 1
  44   23   24 ar
  45   23   46 1
  46   24   29 1
  47   29   30 1
  48   29   31 1
  49   29   32 1

#	End of record

