#	Name: ASD03240662
#	Creating user name:	WinNT
#	Creation time:	15. 06. 2019 20:35

#	Modifying user name:	WinNT
#	Modification time:	15. 06. 2019 20:35

#	Program:	/corina/corina34_cracker 3.40 0067  02.08.2006

@<TRIPOS>MOLECULE
ASD03240662
  63   69    0    0    0
SMALL
NO_CHARGES


@<TRIPOS>ATOM
   1 C1            -0.0575     1.5612    -0.3163 C.ar    
   2 C2            -0.0927     0.1822    -0.3415 C.ar    
   3 N3             1.0184    -0.5272    -0.2821 N.ar    
   4 C4             2.2115     0.0453    -0.1951 C.ar    
   5 C5             2.3223     1.4342    -0.1789 C.ar    
   6 C6             1.1694     2.2066    -0.2340 C.ar    
   7 N7             3.3437    -0.7590    -0.0997 N.pl3   
   8 C8             4.1490    -0.7198     1.0354 C.ar    
   9 C9             4.8101     0.4586     1.3979 C.ar    
  10 C10            4.6830     1.6706     0.5591 C.2     
  11 N11            3.5718     2.0683    -0.1264 N.pl3   
  12 C12            4.2973    -1.8571     1.8180 C.ar    
  13 C13            5.0846    -1.8182     2.9529 C.ar    
  14 C14            5.7303    -0.6497     3.3187 C.ar    
  15 C15            5.5974     0.4881     2.5486 C.ar    
  16 N16            5.6461     2.5470     0.3562 N.2     
  17 C17            5.2080     3.5217    -0.4553 C.2     
  18 C18            3.8922     3.2416    -0.7790 C.2     
  19 C19            3.0068     4.0395    -1.6492 C.ar    
  20 C20            2.7974     5.3948    -1.3832 C.ar    
  21 C21            2.3788     3.4441    -2.7458 C.ar    
  22 C22            1.5521     4.1948    -3.5557 C.ar    
  23 C23            1.3438     5.5353    -3.2852 C.ar    
  24 C24            1.9672     6.1351    -2.2021 C.ar    
  25 C25            5.9925     4.6889    -0.9209 C.ar    
  26 C26            0.4399     6.3486    -4.1755 C.3     
  27 C27            6.7283     5.4463    -0.0100 C.ar    
  28 N28           -0.8699     6.6163    -3.5667 N.3     
  29 C29            1.1151     7.6005    -4.7599 C.3     
  30 C30            0.3824     7.2857    -6.0748 C.3     
  31 C31            0.3547     5.8181    -5.6164 C.3     
  32 C32            7.4570     6.5325    -0.4499 C.ar    
  33 C33            7.4586     6.8706    -1.7912 C.ar    
  34 C34            6.7306     6.1230    -2.6998 C.ar    
  35 C35            6.0027     5.0314    -2.2731 C.ar    
  36 F36            1.7585     7.4447    -1.9441 F       
  37 C37            6.7272     5.0796     1.4517 C.3     
  38 H38           -0.9730     2.1320    -0.3645 H       
  39 H39           -1.0440    -0.3244    -0.4106 H       
  40 H40            1.2257     3.2849    -0.2136 H       
  41 H41            3.5738    -1.3529    -0.8313 H       
  42 H42            3.7966    -2.7727     1.5397 H       
  43 H43            5.1973    -2.7054     3.5583 H       
  44 H44            6.3399    -0.6281     4.2099 H       
  45 H45            6.1018     1.3988     2.8364 H       
  46 H46            3.2831     5.8623    -0.5394 H       
  47 H47            2.5405     2.3978    -2.9594 H       
  48 H48            1.0664     3.7348    -4.4036 H       
  49 H49           -1.2876     5.7662    -3.2190 H       
  50 H50           -0.7943     7.3074    -2.8355 H       
  51 H51            0.7915     8.5300    -4.2915 H       
  52 H52            2.1994     7.5177    -4.8337 H       
  53 H53           -0.6059     7.7403    -6.1436 H       
  54 H54            0.9897     7.4540    -6.9642 H       
  55 H55            1.2312     5.2479    -5.9243 H       
  56 H56           -0.5827     5.3086    -5.8394 H       
  57 H57            8.0270     7.1200     0.2547 H       
  58 H58            8.0302     7.7217    -2.1305 H       
  59 H59            6.7354     6.3920    -3.7457 H       
  60 H60            5.4351     4.4484    -2.9833 H       
  61 H61            7.5412     4.3829     1.6521 H       
  62 H62            6.8628     5.9792     2.0520 H       
  63 H63            5.7768     4.6114     1.7081 H       
@<TRIPOS>BOND
   1    1    2 ar
   2    1    6 ar
   3    1   38 1
   4    2    3 ar
   5    2   39 1
   6    3    4 ar
   7    4    5 ar
   8    4    7 1
   9    5    6 ar
  10    5   11 1
  11    6   40 1
  12    7    8 1
  13    7   41 1
  14    8    9 ar
  15    8   12 ar
  16    9   10 1
  17    9   15 ar
  18   10   11 1
  19   10   16 2
  20   11   18 1
  21   12   13 ar
  22   12   42 1
  23   13   14 ar
  24   13   43 1
  25   14   15 ar
  26   14   44 1
  27   15   45 1
  28   16   17 1
  29   17   18 2
  30   17   25 1
  31   18   19 1
  32   19   20 ar
  33   19   21 ar
  34   20   24 ar
  35   20   46 1
  36   21   22 ar
  37   21   47 1
  38   22   23 ar
  39   22   48 1
  40   23   24 ar
  41   23   26 1
  42   24   36 1
  43   25   27 ar
  44   25   35 ar
  45   26   29 1
  46   26   28 1
  47   26   31 1
  48   27   32 ar
  49   27   37 1
  50   28   49 1
  51   28   50 1
  52   29   30 1
  53   29   51 1
  54   29   52 1
  55   30   31 1
  56   30   53 1
  57   30   54 1
  58   31   55 1
  59   31   56 1
  60   32   33 ar
  61   32   57 1
  62   33   34 ar
  63   33   58 1
  64   34   35 ar
  65   34   59 1
  66   35   60 1
  67   37   61 1
  68   37   62 1
  69   37   63 1

#	End of record

