#	Name: ASD01870674
#	Creating user name:	WinNT
#	Creation time:	15. 06. 2019 19:39

#	Modifying user name:	WinNT
#	Modification time:	15. 06. 2019 19:39

#	Program:	/corina/corina34_cracker 3.40 0067  02.08.2006

@<TRIPOS>MOLECULE
ASD01870674
  34   37    0    0    0
SMALL
NO_CHARGES


@<TRIPOS>ATOM
   1 C1            -0.0174     1.4474     0.0142 C.2     
   2 C2             0.0020    -0.0041    -0.0008 C.2     
   3 C3             1.2282    -0.5353    -0.0716 C.2     
   4 S4             2.4387     0.6593    -0.1249 S.3     
   5 C5             1.2694     1.9672    -0.0497 C.2     
   6 C6            -1.2300    -0.8268     0.0580 C.ar    
   7 C7            -1.4323    -1.8508    -0.8660 C.ar    
   8 C8            -2.5810    -2.6133    -0.8064 C.ar    
   9 C9            -3.5307    -2.3630     0.1677 C.ar    
  10 C10           -3.3356    -1.3479     1.0869 C.ar    
  11 C11           -2.1879    -0.5829     1.0409 C.ar    
  12 N12           -1.0679     2.3087     0.0840 N.2     
  13 C13            1.4388     3.3735    -0.0452 C.2     
  14 N14            0.3426     4.1567     0.0211 N.am    
  15 C15           -0.8946     3.5945     0.0870 C.2     
  16 C16            0.4785     5.5510     0.0277 C.ar    
  17 C17            1.0616     6.1877     1.1153 C.ar    
  18 C18            1.1944     7.5624     1.1194 C.ar    
  19 C19            0.7469     8.3052     0.0409 C.ar    
  20 C20            0.1653     7.6730    -1.0441 C.ar    
  21 C21            0.0354     6.2981    -1.0556 C.ar    
  22 O22            2.5532     3.8661    -0.0997 O.2     
  23 Cl23           0.9147    10.0330     0.0494 Cl      
  24 H24            1.4261    -1.5968    -0.0925 H       
  25 H25           -0.6916    -2.0469    -1.6271 H       
  26 H26           -2.7390    -3.4067    -1.5219 H       
  27 H27           -4.4282    -2.9623     0.2105 H       
  28 H28           -4.0808    -1.1565     1.8449 H       
  29 H29           -2.0342     0.2060     1.7623 H       
  30 H30           -1.7596     4.2387     0.1435 H       
  31 H31            1.4107     5.6085     1.9573 H       
  32 H32            1.6476     8.0581     1.9651 H       
  33 H33           -0.1835     8.2549    -1.8844 H       
  34 H34           -0.4144     5.8048    -1.9046 H       
@<TRIPOS>BOND
   1    1    2 1
   2    1    5 2
   3    1   12 1
   4    2    3 2
   5    2    6 1
   6    3    4 1
   7    3   24 1
   8    4    5 1
   9    5   13 1
  10    6    7 ar
  11    6   11 ar
  12    7    8 ar
  13    7   25 1
  14    8    9 ar
  15    8   26 1
  16    9   10 ar
  17    9   27 1
  18   10   11 ar
  19   10   28 1
  20   11   29 1
  21   12   15 2
  22   13   14 am
  23   13   22 2
  24   14   15 1
  25   14   16 1
  26   15   30 1
  27   16   17 ar
  28   16   21 ar
  29   17   18 ar
  30   17   31 1
  31   18   19 ar
  32   18   32 1
  33   19   20 ar
  34   19   23 1
  35   20   21 ar
  36   20   33 1
  37   21   34 1

#	End of record

