#	Name: ASD05390006
#	Creating user name:	WinNT
#	Creation time:	15. 06. 2019 20:59

#	Modifying user name:	WinNT
#	Modification time:	15. 06. 2019 20:59

#	Program:	/corina/corina34_cracker 3.40 0067  02.08.2006

@<TRIPOS>MOLECULE
ASD05390006
  12   12    0    0    0
SMALL
NO_CHARGES


@<TRIPOS>ATOM
   1 C1            -0.0167     1.3779     0.0096 C.ar    
   2 C2             0.0021    -0.0041     0.0020 C.ar    
   3 C3            -1.2350     2.0379     0.0306 C.ar    
   4 C4            -2.2993    -0.1072     0.0233 C.ar    
   5 N5            -1.1203    -0.6964     0.0090 N.ar    
   6 O6            -3.6169     1.8796     0.0639 O.3     
   7 C7            -2.3991     1.2766     0.0432 C.ar    
   8 H8             0.9074     1.9368     0.0038 H       
   9 H9             0.9486    -0.5240    -0.0101 H       
  10 H10           -1.2796     3.1169     0.0373 H       
  11 H11           -3.1969    -0.7079     0.0283 H       
  12 H12           -3.9820     2.0588    -0.8134 H       
@<TRIPOS>BOND
   1    1    2 ar
   2    1    8 1
   3    1    3 ar
   4    2    9 1
   5    2    5 ar
   6    3   10 1
   7    3    7 ar
   8    4    5 ar
   9    4   11 1
  10    4    7 ar
  11    6    7 1
  12    6   12 1

#	End of record

