#	Name: ASD01881722
#	Creating user name:	WinNT
#	Creation time:	15. 06. 2019 19:43

#	Modifying user name:	WinNT
#	Modification time:	15. 06. 2019 19:43

#	Program:	/corina/corina34_cracker 3.40 0067  02.08.2006

@<TRIPOS>MOLECULE
ASD01881722
  52   55    0    0    0
SMALL
NO_CHARGES


@<TRIPOS>ATOM
   1 N1            -0.0712     1.2966     0.6422 N.pl3   
   2 N2            -0.0760     0.0335     0.8946 N.2     
   3 N3             1.1169    -0.4428     0.9689 N.2     
   4 C4             2.0054     0.5487     0.7554 C.ar    
   5 C5             1.2359     1.7073     0.5374 C.ar    
   6 C6             3.3999     0.6296     0.7153 C.ar    
   7 C7             4.0027     1.8459     0.4622 C.ar    
   8 C8             3.2303     2.9851     0.2481 C.ar    
   9 C9             1.8654     2.9190     0.2840 C.ar    
  10 O10            5.3593     1.9322     0.4221 O.3     
  11 C11            5.9199     3.2193     0.1556 C.3     
  12 N12            9.9955     4.0273     1.1588 N.3     
  13 C13            9.5730     4.3795    -0.2028 C.3     
  14 C14            8.0462     4.4680    -0.2578 C.3     
  15 C15            7.4467     3.1193     0.1499 C.3     
  16 C16            7.9407     2.7530     1.5521 C.3     
  17 C17            9.4706     2.7142     1.5547 C.3     
  18 C18           11.4586     4.0688     1.2834 C.3     
  19 C19           11.9208     5.5238     1.3838 C.3     
  20 C20           13.4259     5.5631     1.6559 C.3     
  21 F21           14.1056     4.9290     0.6103 F       
  22 F22           13.8486     6.8936     1.7477 F       
  23 F23           11.6469     6.1842     0.1813 F       
  24 F24           11.2412     6.1579     2.4294 F       
  25 C25           -1.2542     2.1467     0.4875 C.3     
  26 C26           -1.6476     2.7257     1.8480 C.3     
  27 C27           -2.7946     3.7378     1.8801 C.3     
  28 C28           -3.0079     2.3225     2.4207 C.3     
  29 Br29           4.4529    -0.9139     1.0058 Br      
  30 H30            3.7147     3.9301     0.0516 H       
  31 H31            1.2769     3.8089     0.1163 H       
  32 H32            5.5752     3.5715    -0.8166 H       
  33 H33            5.6046     3.9201     0.9286 H       
  34 H34           10.0028     5.3424    -0.4788 H       
  35 H35            9.9179     3.6151    -0.8992 H       
  36 H36            7.7016     5.2417     0.4282 H       
  37 H37            7.7323     4.7140    -1.2722 H       
  38 H38            7.7588     2.3526    -0.5592 H       
  39 H39            7.5944     3.4998     2.2666 H       
  40 H40            7.5514     1.7738     1.8309 H       
  41 H41            9.8159     1.9576     0.8501 H       
  42 H42            9.8260     2.4677     2.5552 H       
  43 H43           11.7624     3.5283     2.1799 H       
  44 H44           11.9111     3.6034     0.4077 H       
  45 H45           13.6394     5.0486     2.5928 H       
  46 H46           -1.0294     2.9602    -0.2023 H       
  47 H47           -2.0790     1.5533     0.0930 H       
  48 H48           -0.8281     2.8714     2.5517 H       
  49 H49           -2.7299     4.5491     2.6051 H       
  50 H50           -3.2690     3.9911     0.9319 H       
  51 H51           -3.6225     1.6447     1.8283 H       
  52 H52           -3.0834     2.2026     3.5015 H       
@<TRIPOS>BOND
   1    1    2 1
   2    1    5 1
   3    1   25 1
   4    2    3 2
   5    3    4 1
   6    4    5 ar
   7    4    6 ar
   8    5    9 ar
   9    6    7 ar
  10    6   29 1
  11    7    8 ar
  12    7   10 1
  13    8    9 ar
  14    8   30 1
  15    9   31 1
  16   10   11 1
  17   11   15 1
  18   11   32 1
  19   11   33 1
  20   12   13 1
  21   12   17 1
  22   12   18 1
  23   13   14 1
  24   13   34 1
  25   13   35 1
  26   14   15 1
  27   14   36 1
  28   14   37 1
  29   15   16 1
  30   15   38 1
  31   16   17 1
  32   16   39 1
  33   16   40 1
  34   17   41 1
  35   17   42 1
  36   18   19 1
  37   18   43 1
  38   18   44 1
  39   19   20 1
  40   19   23 1
  41   19   24 1
  42   20   21 1
  43   20   22 1
  44   20   45 1
  45   25   26 1
  46   25   46 1
  47   25   47 1
  48   26   27 1
  49   26   28 1
  50   26   48 1
  51   27   28 1
  52   27   49 1
  53   27   50 1
  54   28   51 1
  55   28   52 1

#	End of record

