#	Name: ASD01901265
#	Creating user name:	WinNT
#	Creation time:	15. 06. 2019 19:53

#	Modifying user name:	WinNT
#	Modification time:	15. 06. 2019 19:53

#	Program:	/corina/corina34_cracker 3.40 0067  02.08.2006

@<TRIPOS>MOLECULE
ASD01901265
  42   45    0    0    0
SMALL
NO_CHARGES


@<TRIPOS>ATOM
   1 C1            -0.0133     1.3752    -0.0774 C.ar    
   2 C2             0.0052    -0.0038    -0.0791 C.ar    
   3 C3             1.2071    -0.6831     0.0162 C.ar    
   4 C4             2.3982     0.0145     0.1137 C.ar    
   5 C5             2.3953     1.3936     0.1166 C.ar    
   6 C6             1.1856     2.0865     0.0203 C.ar    
   7 C7             1.1745     3.5185     0.0221 C.1     
   8 C8             1.1654     4.6925     0.0237 C.1     
   9 C9             1.1543     6.1244     0.0255 C.ar    
  10 C10           -0.0149     8.2083    -0.0582 C.ar    
  11 C11           -0.0563     6.8272    -0.0645 C.ar    
  12 C12            2.3484     6.8426     0.1229 C.ar    
  13 N13            2.3412     8.1593     0.1253 N.ar    
  14 C14            1.2161     8.8515     0.0367 C.ar    
  15 N15            1.2645    10.2467     0.0430 N.am    
  16 N16            1.2482    12.2427     1.2997 N.am    
  17 C17            1.2068    10.9020     1.2129 C.2     
  18 C18            1.3741    10.9110    -1.1280 C.2     
  19 C19            1.4237    12.3832    -1.0936 C.ar    
  20 C20            1.3543    13.0221     0.1568 C.ar    
  21 C21            1.3982    14.4062     0.2230 C.ar    
  22 C22            1.5365    13.1399    -2.2577 C.ar    
  23 C23            1.5794    14.5157    -2.1720 C.ar    
  24 C24            1.5036    15.1449    -0.9387 C.ar    
  25 C25            1.1802    12.8872     2.6135 C.3     
  26 O26            1.1126    10.2553     2.2380 O.2     
  27 O27            1.4309    10.3095    -2.1832 O.2     
  28 Cl28          -1.4814     9.1309    -0.1670 Cl      
  29 H29           -0.9517     1.9041    -0.1559 H       
  30 H30           -0.9205    -0.5549    -0.1545 H       
  31 H31            1.2154    -1.7631     0.0148 H       
  32 H32            3.3323    -0.5224     0.1881 H       
  33 H33            3.3256     1.9368     0.1934 H       
  34 H34           -0.9972     6.3019    -0.1372 H       
  35 H35            3.2866     6.3128     0.1972 H       
  36 H36            1.3496    14.9049     1.1797 H       
  37 H37            1.5904    12.6528    -3.2201 H       
  38 H38            1.6671    15.1069    -3.0716 H       
  39 H39            1.5377    16.2230    -0.8856 H       
  40 H40            1.0996    12.1248     3.3884 H       
  41 H41            2.0824    13.4767     2.7762 H       
  42 H42            0.3078    13.5395     2.6535 H       
@<TRIPOS>BOND
   1    1    2 ar
   2    1    6 ar
   3    1   29 1
   4    2    3 ar
   5    2   30 1
   6    3    4 ar
   7    3   31 1
   8    4    5 ar
   9    4   32 1
  10    5    6 ar
  11    5   33 1
  12    6    7 1
  13    7    8 3
  14    8    9 1
  15    9   12 ar
  16    9   11 ar
  17   10   11 ar
  18   10   14 ar
  19   10   28 1
  20   11   34 1
  21   12   13 ar
  22   12   35 1
  23   13   14 ar
  24   14   15 1
  25   15   18 am
  26   15   17 am
  27   16   17 am
  28   16   20 1
  29   16   25 1
  30   17   26 2
  31   18   19 1
  32   18   27 2
  33   19   22 ar
  34   19   20 ar
  35   20   21 ar
  36   21   24 ar
  37   21   36 1
  38   22   23 ar
  39   22   37 1
  40   23   24 ar
  41   23   38 1
  42   24   39 1
  43   25   40 1
  44   25   41 1
  45   25   42 1

#	End of record

