#	Name: ASD04590360
#	Creating user name:	WinNT
#	Creation time:	15. 06. 2019 20:50

#	Modifying user name:	WinNT
#	Modification time:	15. 06. 2019 20:50

#	Program:	/corina/corina34_cracker 3.40 0067  02.08.2006

@<TRIPOS>MOLECULE
ASD04590360
  39   42    0    0    0
SMALL
NO_CHARGES


@<TRIPOS>ATOM
   1 C1            -0.0167     1.3831     0.0096 C.ar    
   2 C2             0.0021    -0.0041     0.0020 C.ar    
   3 C3            -1.1749    -0.7194     0.0094 C.ar    
   4 C4            -2.3992    -0.0420     0.0252 C.ar    
   5 C5            -2.4112     1.3639     0.0333 C.ar    
   6 C6            -1.2146     2.0664     0.0305 C.ar    
   7 N7            -3.6908    -0.4540     0.0359 N.2     
   8 C8            -4.4855     0.5885     0.0498 C.2     
   9 N9            -3.7415     1.7380     0.0489 N.pl3   
  10 C10           -5.9619     0.5317     0.0636 C.2     
  11 C11           -6.7486    -0.6434     0.0645 C.2     
  12 C12           -8.0512    -0.2686     0.0791 C.2     
  13 N13           -8.0938     1.0897     0.0872 N.pl3   
  14 N14           -6.7774     1.5677     0.0830 N.2     
  15 N15           -6.2667    -1.9623     0.0525 N.am    
  16 C16           -7.1317    -2.9959     0.0549 C.2     
  17 C17           -6.6254    -4.3815     0.0423 C.ar    
  18 O18           -8.3295    -2.7863     0.0676 O.2     
  19 C19           -6.3955    -5.0355    -1.1730 C.ar    
  20 C20           -5.9206    -6.3335    -1.1756 C.ar    
  21 C21           -5.6732    -6.9860     0.0185 C.ar    
  22 C22           -5.8981    -6.3472     1.2244 C.ar    
  23 C23           -6.3669    -5.0471     1.2454 C.ar    
  24 F24           -6.5855    -4.4247     2.4245 F       
  25 F25           -6.6374    -4.4002    -2.3405 F       
  26 C26            1.2812     2.1489     0.0014 C.3     
  27 F27            2.3530     1.2499    -0.0137 F       
  28 F28            1.3368     2.9600    -1.1372 F       
  29 F29            1.3586     2.9477     1.1473 F       
  30 Cl30          -1.1397    -2.4550    -0.0014 Cl      
  31 H31            0.9469    -0.5271    -0.0102 H       
  32 H32           -1.2213     3.1464     0.0367 H       
  33 H33           -4.0841     2.6454     0.0578 H       
  34 H34           -8.9037    -0.9317     0.0832 H       
  35 H35           -8.8968     1.6337     0.0979 H       
  36 H36           -5.3112    -2.1295     0.0424 H       
  37 H37           -5.7426    -6.8398    -2.1128 H       
  38 H38           -5.3026    -8.0003     0.0092 H       
  39 H39           -5.7029    -6.8643     2.1523 H       
@<TRIPOS>BOND
   1    1    2 ar
   2    1   26 1
   3    1    6 ar
   4    2    3 ar
   5    2   31 1
   6    3    4 ar
   7    3   30 1
   8    4    5 ar
   9    4    7 1
  10    5    6 ar
  11    5    9 1
  12    6   32 1
  13    7    8 2
  14    8    9 1
  15    8   10 1
  16    9   33 1
  17   10   11 1
  18   10   14 2
  19   11   12 2
  20   11   15 1
  21   12   13 1
  22   12   34 1
  23   13   14 1
  24   13   35 1
  25   15   16 am
  26   15   36 1
  27   16   17 1
  28   16   18 2
  29   17   19 ar
  30   17   23 ar
  31   19   20 ar
  32   19   25 1
  33   20   21 ar
  34   20   37 1
  35   21   22 ar
  36   21   38 1
  37   22   23 ar
  38   22   39 1
  39   23   24 1
  40   26   27 1
  41   26   28 1
  42   26   29 1

#	End of record

