#	Name: ASD05313146
#	Creating user name:	WinNT
#	Creation time:	15. 06. 2019 20:58

#	Modifying user name:	WinNT
#	Modification time:	15. 06. 2019 20:58

#	Program:	/corina/corina34_cracker 3.40 0067  02.08.2006

@<TRIPOS>MOLECULE
ASD05313146
  37   40    0    0    0
SMALL
NO_CHARGES


@<TRIPOS>ATOM
   1 C1            -0.0725     0.8203     1.0207 C.2     
   2 C2             0.1131    -0.6165     0.5947 C.3     
   3 N3             0.9306     1.7332     1.0469 N.pl3   
   4 N4             1.4566    -0.7172    -0.0061 N.am    
   5 C5             2.5708    -0.0356     0.6701 C.3     
   6 C6             2.3173     1.4767     0.6618 C.3     
   7 N7            -0.9038     2.6444     1.7026 N.2     
   8 N8            -1.1573     1.4123     1.4221 N.2     
   9 C9             0.3725     2.8936     1.4899 C.2     
  10 C10            1.0658     4.1838     1.6956 C.ar    
  11 C11            0.3565     5.2940     2.1578 C.ar    
  12 N12            2.3687     4.2887     1.4459 N.ar    
  13 N13            0.9797     6.4430     2.3397 N.ar    
  14 C14            2.2743     6.5432     2.0846 C.ar    
  15 C15            2.9833     5.4417     1.6307 C.ar    
  16 Cl16           3.0888     8.0573     2.3251 Cl      
  17 C17            1.6574    -1.4142    -1.1420 C.2     
  18 O18            2.7496    -1.4046    -1.6760 O.2     
  19 C19            0.5510    -2.1894    -1.7378 C.ar    
  20 C20            0.3198    -2.1371    -3.1156 C.ar    
  21 C21           -0.7155    -2.8644    -3.6663 C.ar    
  22 C22           -1.5247    -3.6451    -2.8558 C.ar    
  23 C23           -1.2996    -3.6999    -1.4885 C.ar    
  24 C24           -0.2650    -2.9824    -0.9279 C.ar    
  25 F25           -2.5370    -4.3553    -3.4000 F       
  26 Cl26           1.3326    -1.1591    -4.1313 Cl      
  27 H27            0.0430    -1.2736     1.4616 H       
  28 H28           -0.6445    -0.8872    -0.1407 H       
  29 H29            2.6419    -0.3871     1.6994 H       
  30 H30            3.5017    -0.2515     0.1457 H       
  31 H31            2.4963     1.8704    -0.3387 H       
  32 H32            2.9879     1.9624     1.3707 H       
  33 H33           -0.7001     5.2128     2.3658 H       
  34 H34            4.0407     5.5273     1.4286 H       
  35 H35           -0.8958    -2.8250    -4.7304 H       
  36 H36           -1.9339    -4.3095    -0.8621 H       
  37 H37           -0.0881    -3.0300     0.1364 H       
@<TRIPOS>BOND
   1    1    2 1
   2    1    3 1
   3    1    8 2
   4    2    4 1
   5    2   27 1
   6    2   28 1
   7    3    6 1
   8    3    9 1
   9    4    5 1
  10    4   17 am
  11    5    6 1
  12    5   29 1
  13    5   30 1
  14    6   31 1
  15    6   32 1
  16    7    8 1
  17    7    9 2
  18    9   10 1
  19   10   11 ar
  20   10   12 ar
  21   11   13 ar
  22   11   33 1
  23   12   15 ar
  24   13   14 ar
  25   14   15 ar
  26   14   16 1
  27   15   34 1
  28   17   18 2
  29   17   19 1
  30   19   20 ar
  31   19   24 ar
  32   20   21 ar
  33   20   26 1
  34   21   22 ar
  35   21   35 1
  36   22   23 ar
  37   22   25 1
  38   23   24 ar
  39   23   36 1
  40   24   37 1

#	End of record

