#	Name: ASD01730049
#	Creating user name:	WinNT
#	Creation time:	15. 06. 2019 19:23

#	Modifying user name:	WinNT
#	Modification time:	15. 06. 2019 19:23

#	Program:	/corina/corina34_cracker 3.40 0067  02.08.2006

@<TRIPOS>MOLECULE
ASD01730049
  27   28    0    0    0
SMALL
NO_CHARGES


@<TRIPOS>ATOM
   1 N1             1.1990    -0.6833     0.0573 N.pl3   
   2 C2             0.0027    -0.0069     0.0199 C.2     
   3 N3            -1.1811    -0.7052    -0.0944 N.pl3   
   4 N4            -0.0128     1.2937     0.0925 N.2     
   5 S5            -2.2316    -4.1130    -1.7144 S.3     
   6 C6            -2.4746    -2.7625    -0.5207 C.3     
   7 C7            -1.1602    -2.0625    -0.3087 C.2     
   8 N8            -0.0225    -2.6513    -0.3157 N.2     
   9 C9             0.2191    -3.9775    -0.5068 C.ar    
  10 C10           -0.7111    -4.8087    -1.1490 C.ar    
  11 C11            1.4198    -4.5329    -0.0569 C.ar    
  12 C12            1.6770    -5.8748    -0.2482 C.ar    
  13 C13            0.7532    -6.6848    -0.8843 C.ar    
  14 C14           -0.4415    -6.1521    -1.3358 C.ar    
  15 C15            2.4616     0.0591     0.0247 C.3     
  16 H16            1.2071    -1.6519     0.1092 H       
  17 H17           -2.0284    -0.2384    -0.0236 H       
  18 H18           -0.8490     1.7750    -0.0067 H       
  19 H19           -3.2064    -2.0559    -0.9122 H       
  20 H20           -2.8277    -3.1708     0.4262 H       
  21 H21            2.1482    -3.9103     0.4413 H       
  22 H22            2.6074    -6.2967     0.1019 H       
  23 H23            0.9652    -7.7337    -1.0296 H       
  24 H24           -1.1626    -6.7846    -1.8321 H       
  25 H25            2.5111     0.7294     0.8828 H       
  26 H26            3.2959    -0.6413     0.0621 H       
  27 H27            2.5170     0.6415    -0.8949 H       
@<TRIPOS>BOND
   1    1    2 1
   2    1   15 1
   3    1   16 1
   4    2    3 1
   5    2    4 2
   6    3    7 1
   7    3   17 1
   8    4   18 1
   9    5    6 1
  10    5   10 1
  11    6    7 1
  12    6   19 1
  13    6   20 1
  14    7    8 2
  15    8    9 1
  16    9   10 ar
  17    9   11 ar
  18   10   14 ar
  19   11   12 ar
  20   11   21 1
  21   12   13 ar
  22   12   22 1
  23   13   14 ar
  24   13   23 1
  25   14   24 1
  26   15   25 1
  27   15   26 1
  28   15   27 1

#	End of record

