#	Name: ASD08150649
#	Creating user name:	WinNT
#	Creation time:	15. 06. 2019 21:16

#	Modifying user name:	WinNT
#	Modification time:	15. 06. 2019 21:16

#	Program:	/corina/corina34_cracker 3.40 0067  02.08.2006

@<TRIPOS>MOLECULE
ASD08150649
  65   71    0    0    0
SMALL
NO_CHARGES


@<TRIPOS>ATOM
   1 N1             2.0288     4.6027     2.7568 N.am    
   2 C2             2.7845     4.5316     3.8698 C.2     
   3 C3             4.0688     3.9515     3.8367 C.2     
   4 C4             4.5637     3.4538     2.6748 C.2     
   5 C5             3.7714     3.5270     1.5020 C.ar    
   6 C6             4.2367     3.0256     0.2714 C.ar    
   7 N7             3.5034     3.0941    -0.8090 N.ar    
   8 C8             2.2777     3.6397    -0.8110 C.ar    
   9 C9             1.7288     4.1695     0.3828 C.ar    
  10 C10            2.4969     4.1110     1.5695 C.ar    
  11 C11            0.4510     4.7363     0.3702 C.ar    
  12 C12           -0.2676     4.7737    -0.8152 C.ar    
  13 C13            0.2830     4.2469    -1.9930 C.ar    
  14 C14            1.5245     3.6927    -1.9957 C.ar    
  15 O15            2.3518     4.9752     4.9199 O.2     
  16 C16           -1.6222     5.3718    -0.8377 C.ar    
  17 C17            0.7530     5.1789     2.8172 C.ar    
  18 C18            0.6044     6.5531     2.6792 C.ar    
  19 C19           -0.6520     7.1208     2.7391 C.ar    
  20 C20           -1.7685     6.3177     2.9370 C.ar    
  21 C21           -1.6197     4.9435     3.0745 C.ar    
  22 C22           -0.3632     4.3754     3.0093 C.ar    
  23 N23           -3.0413     6.8926     2.9981 N.3     
  24 C24           -3.0971     8.1331     2.2121 C.3     
  25 C25           -3.4427     7.1363     4.3906 C.3     
  26 C26           -4.8690     7.6907     4.4179 C.3     
  27 N27           -4.9249     8.9311     3.6320 N.3     
  28 C28           -4.5234     8.6874     2.2395 C.3     
  29 C29           -2.7368     4.5847    -0.6091 C.ar    
  30 C30           -4.0129     5.1363    -0.6286 C.ar    
  31 C31           -4.2008     6.4635    -0.8726 C.ar    
  32 C32           -3.0959     7.2979    -1.1096 C.ar    
  33 C33           -1.7883     6.7560    -1.0877 C.ar    
  34 C34           -3.2596     8.6729    -1.3644 C.ar    
  35 C35           -2.1410     9.4250    -1.5861 C.ar    
  36 C36           -0.8840     8.8260    -1.5558 C.ar    
  37 N37           -0.7364     7.5456    -1.3121 N.ar    
  38 C38           -2.8304     4.0723     3.2896 C.3     
  39 F39           -2.4510     2.7266     3.2419 F       
  40 F40           -3.3918     4.3545     4.5396 F       
  41 F41           -3.7724     4.3271     2.2872 F       
  42 H42            4.6610     3.9032     4.7385 H       
  43 H43            5.5473     3.0087     2.6445 H       
  44 H44            5.2174     2.5765     0.2187 H       
  45 H45            0.0266     5.1417     1.2769 H       
  46 H46           -0.2868     4.2821    -2.9098 H       
  47 H47            1.9331     3.2921    -2.9116 H       
  48 H48            1.4722     7.1773     2.5254 H       
  49 H49           -0.7675     8.1893     2.6325 H       
  50 H50           -0.2480     3.3065     3.1118 H       
  51 H51           -2.4137     8.8662     2.6407 H       
  52 H52           -2.8077     7.9244     1.1822 H       
  53 H53           -3.4053     6.2009     4.9489 H       
  54 H54           -2.7633     7.8581     4.8439 H       
  55 H55           -5.5524     6.9575     3.9893 H       
  56 H56           -5.1584     7.8994     5.4479 H       
  57 H57           -5.8435     9.3461     3.6761 H       
  58 H58           -4.5608     9.6229     1.6812 H       
  59 H59           -5.2028     7.9656     1.7861 H       
  60 H60           -2.6142     3.5297    -0.4137 H       
  61 H61           -4.8687     4.5028    -0.4478 H       
  62 H62           -5.1996     6.8741    -0.8841 H       
  63 H63           -4.2423     9.1205    -1.3845 H       
  64 H64           -2.2313    10.4827    -1.7849 H       
  65 H65           -0.0079     9.4323    -1.7328 H       
@<TRIPOS>BOND
   1    1    2 am
   2    1   10 1
   3    1   17 1
   4    2    3 1
   5    2   15 2
   6    3    4 2
   7    3   42 1
   8    4    5 1
   9    4   43 1
  10    5    6 ar
  11    5   10 ar
  12    6    7 ar
  13    6   44 1
  14    7    8 ar
  15    8    9 ar
  16    8   14 ar
  17    9   10 ar
  18    9   11 ar
  19   11   12 ar
  20   11   45 1
  21   12   13 ar
  22   12   16 1
  23   13   14 ar
  24   13   46 1
  25   14   47 1
  26   16   29 ar
  27   16   33 ar
  28   17   18 ar
  29   17   22 ar
  30   18   19 ar
  31   18   48 1
  32   19   20 ar
  33   19   49 1
  34   20   21 ar
  35   20   23 1
  36   21   22 ar
  37   21   38 1
  38   22   50 1
  39   23   24 1
  40   23   25 1
  41   24   28 1
  42   24   51 1
  43   24   52 1
  44   25   26 1
  45   25   53 1
  46   25   54 1
  47   26   27 1
  48   26   55 1
  49   26   56 1
  50   27   28 1
  51   27   57 1
  52   28   58 1
  53   28   59 1
  54   29   30 ar
  55   29   60 1
  56   30   31 ar
  57   30   61 1
  58   31   32 ar
  59   31   62 1
  60   32   33 ar
  61   32   34 ar
  62   33   37 ar
  63   34   35 ar
  64   34   63 1
  65   35   36 ar
  66   35   64 1
  67   36   37 ar
  68   36   65 1
  69   38   39 1
  70   38   40 1
  71   38   41 1

#	End of record

