#	Name: ASD00170044
#	Creating user name:	WinNT
#	Creation time:	15. 06. 2019 18:31

#	Modifying user name:	WinNT
#	Modification time:	15. 06. 2019 18:31

#	Program:	/corina/corina34_cracker 3.40 0067  02.08.2006

@<TRIPOS>MOLECULE
ASD00170044
  51   55    0    0    0
SMALL
NO_CHARGES


@<TRIPOS>ATOM
   1 C1            -1.1445     3.2755     2.5248 C.ar    
   2 C2            -1.6697     2.7567     3.7355 C.ar    
   3 C3            -2.8656     2.0155     3.7150 C.ar    
   4 C4            -3.5105     1.7996     2.5406 C.ar    
   5 C5            -2.9998     2.3089     1.3332 C.ar    
   6 C6            -1.8225     3.0381     1.3197 C.ar    
   7 C7             0.0517     4.0150     2.5526 C.ar    
   8 C8             0.6877     4.2226     3.7377 C.ar    
   9 C9             0.1715     3.7123     4.9273 C.ar    
  10 C10           -0.9840     2.9924     4.9388 C.ar    
  11 C11           -3.7225     2.0591     0.0676 C.2     
  12 C12           -4.9083     1.2028     0.0593 C.2     
  13 C13           -6.2582     1.7059     0.2280 C.2     
  14 C14           -7.1769     0.7336     0.1847 C.2     
  15 S15           -6.4211    -0.8297    -0.0645 S.3     
  16 C16           -4.8571    -0.1579    -0.1148 C.2     
  17 O17           -3.3304     2.5663    -0.9678 O.2     
  18 N18           -3.6970    -0.8827    -0.2978 N.pl3   
  19 C19           -6.6220     3.1685     0.4322 C.3     
  20 C20           -8.1205     3.3310     0.1579 C.3     
  21 N21           -8.8664     2.3140     0.9129 N.3     
  22 C22           -8.6659     0.9770     0.3344 C.3     
  23 C23          -10.2949     2.6500     0.9791 C.3     
  24 C24          -11.0610     1.4792     1.5389 C.ar    
  25 C25          -11.2600     1.3717     2.9026 C.ar    
  26 C26          -11.9626     0.2976     3.4160 C.ar    
  27 C27          -12.4667    -0.6687     2.5657 C.ar    
  28 C28          -12.2685    -0.5607     1.2019 C.ar    
  29 C29          -11.5696     0.5156     0.6881 C.ar    
  30 H30           -3.2701     1.6180     4.6341 H       
  31 H31           -4.4275     1.2291     2.5330 H       
  32 H32           -1.4337     3.4274     0.3904 H       
  33 H33            0.4634     4.4157     1.6381 H       
  34 H34            1.6060     4.7907     3.7564 H       
  35 H35            0.6959     3.8910     5.8544 H       
  36 H36           -1.3714     2.6035     5.8688 H       
  37 H37           -3.7303    -1.8516    -0.3287 H       
  38 H38           -2.8483    -0.4232    -0.3954 H       
  39 H39           -6.4020     3.4624     1.4585 H       
  40 H40           -6.0521     3.7893    -0.2591 H       
  41 H41           -8.4419     4.3245     0.4705 H       
  42 H42           -8.3109     3.2052    -0.9079 H       
  43 H43           -9.1456     0.9255    -0.6430 H       
  44 H44           -9.0949     0.2241     0.9956 H       
  45 H45          -10.4346     3.5175     1.6242 H       
  46 H46          -10.6612     2.8788    -0.0217 H       
  47 H47          -10.8661     2.1266     3.5669 H       
  48 H48          -12.1174     0.2133     4.4815 H       
  49 H49          -13.0150    -1.5082     2.9669 H       
  50 H50          -12.6620    -1.3158     0.5376 H       
  51 H51          -11.4147     0.6000    -0.3774 H       
@<TRIPOS>BOND
   1    1    2 ar
   2    1    7 ar
   3    1    6 ar
   4    2    3 ar
   5    2   10 ar
   6    3    4 ar
   7    3   30 1
   8    4    5 ar
   9    4   31 1
  10    5    6 ar
  11    5   11 1
  12    6   32 1
  13    7    8 ar
  14    7   33 1
  15    8    9 ar
  16    8   34 1
  17    9   10 ar
  18    9   35 1
  19   10   36 1
  20   11   12 1
  21   11   17 2
  22   12   13 1
  23   12   16 2
  24   13   14 2
  25   13   19 1
  26   14   15 1
  27   14   22 1
  28   15   16 1
  29   16   18 1
  30   18   37 1
  31   18   38 1
  32   19   20 1
  33   19   39 1
  34   19   40 1
  35   20   21 1
  36   20   41 1
  37   20   42 1
  38   21   22 1
  39   21   23 1
  40   22   43 1
  41   22   44 1
  42   23   24 1
  43   23   45 1
  44   23   46 1
  45   24   25 ar
  46   24   29 ar
  47   25   26 ar
  48   25   47 1
  49   26   27 ar
  50   26   48 1
  51   27   28 ar
  52   27   49 1
  53   28   29 ar
  54   28   50 1
  55   29   51 1

#	End of record

