#	Name: ASD01910630
#	Creating user name:	WinNT
#	Creation time:	15. 06. 2019 19:56

#	Modifying user name:	WinNT
#	Modification time:	15. 06. 2019 19:56

#	Program:	/corina/corina34_cracker 3.40 0067  02.08.2006

@<TRIPOS>MOLECULE
ASD01910630
  44   47    0    0    0
SMALL
NO_CHARGES


@<TRIPOS>ATOM
   1 C1            -0.8498     1.9199     1.0735 C.2     
   2 C2            -0.8660     0.4905     0.7099 C.2     
   3 N3            -1.8539    -0.3656     0.9127 N.2     
   4 C4            -1.4203    -1.5371     0.4225 C.2     
   5 N5            -0.2212    -1.3495    -0.0445 N.2     
   6 O6             0.1167    -0.1941     0.1032 O.3     
   7 C7            -2.1850    -2.8357     0.4145 C.3     
   8 C8            -2.3679    -3.3120    -1.0283 C.3     
   9 C9            -3.1726    -4.6136    -1.0395 C.3     
  10 C10           -2.4039    -5.6912    -0.2684 C.3     
  11 N11           -2.0971    -5.1830     1.0755 N.am    
  12 C12           -1.4050    -3.8931     1.2021 C.3     
  13 C13           -2.4440    -5.8866     2.1715 C.2     
  14 C14           -3.2130    -7.1401     2.0317 C.ar    
  15 O15           -2.1241    -5.4896     3.2751 O.2     
  16 C16           -2.7850    -8.1294     1.1437 C.ar    
  17 C17           -3.5060    -9.2973     1.0175 C.ar    
  18 C18           -4.6542    -9.4910     1.7702 C.ar    
  19 C19           -5.0839    -8.5119     2.6529 C.ar    
  20 C20           -4.3672    -7.3426     2.7912 C.ar    
  21 F21           -5.3572   -10.6376     1.6426 F       
  22 C22            0.1745     2.7935     0.8596 C.2     
  23 N23           -0.2299     3.9997     1.3463 N.pl3   
  24 C24           -1.4831     3.8417     1.8442 C.2     
  25 N25           -1.8538     2.6047     1.6762 N.2     
  26 C26            0.5468     5.2418     1.3352 C.3     
  27 H27           -3.1616    -2.6856     0.8747 H       
  28 H28           -2.9012    -2.5504    -1.5973 H       
  29 H29           -1.3912    -3.4850    -1.4802 H       
  30 H30           -4.1400    -4.4474    -0.5655 H       
  31 H31           -3.3226    -4.9398    -2.0687 H       
  32 H32           -3.0156    -6.5898    -0.1885 H       
  33 H33           -1.4763    -5.9235    -0.7918 H       
  34 H34           -0.3960    -3.9787     0.7987 H       
  35 H35           -1.3576    -3.6054     2.2523 H       
  36 H36           -1.8909    -7.9794     0.5567 H       
  37 H37           -3.1761   -10.0629     0.3308 H       
  38 H38           -5.9792    -8.6676     3.2366 H       
  39 H39           -4.7026    -6.5807     3.4793 H       
  40 H40            1.1237     2.5719     0.3944 H       
  41 H41           -2.0784     4.6180     2.3018 H       
  42 H42            0.3451     5.7883     0.4139 H       
  43 H43            0.2637     5.8550     2.1908 H       
  44 H44            1.6095     5.0064     1.3927 H       
@<TRIPOS>BOND
   1    1    2 1
   2    1   22 2
   3    1   25 1
   4    2    3 2
   5    2    6 1
   6    3    4 1
   7    4    5 2
   8    4    7 1
   9    5    6 1
  10    7    8 1
  11    7   12 1
  12    7   27 1
  13    8    9 1
  14    8   28 1
  15    8   29 1
  16    9   10 1
  17    9   30 1
  18    9   31 1
  19   10   11 1
  20   10   32 1
  21   10   33 1
  22   11   12 1
  23   11   13 am
  24   12   34 1
  25   12   35 1
  26   13   14 1
  27   13   15 2
  28   14   16 ar
  29   14   20 ar
  30   16   17 ar
  31   16   36 1
  32   17   18 ar
  33   17   37 1
  34   18   19 ar
  35   18   21 1
  36   19   20 ar
  37   19   38 1
  38   20   39 1
  39   22   23 1
  40   22   40 1
  41   23   24 1
  42   23   26 1
  43   24   25 2
  44   24   41 1
  45   26   42 1
  46   26   43 1
  47   26   44 1

#	End of record

