#	Name: ASD04220028
#	Creating user name:	WinNT
#	Creation time:	15. 06. 2019 20:48

#	Modifying user name:	WinNT
#	Modification time:	15. 06. 2019 20:48

#	Program:	/corina/corina34_cracker 3.40 0067  02.08.2006

@<TRIPOS>MOLECULE
ASD04220028
  43   45    0    0    0
SMALL
NO_CHARGES


@<TRIPOS>ATOM
   1 C1             0.0508     1.6680    -0.0419 C.3     
   2 N2            -0.0579     0.2126     0.1055 N.am    
   3 C3             0.7944    -0.6192    -0.7604 C.3     
   4 C4             2.2507    -0.3428    -0.3900 C.3     
   5 C5             2.5089     1.1381    -0.2979 C.ar    
   6 C6             3.8318     1.5701    -0.3858 C.ar    
   7 C7             4.1401     2.9162    -0.2994 C.ar    
   8 C8             3.1302     3.8426    -0.1243 C.ar    
   9 C9             1.8157     3.4171    -0.0408 C.ar    
  10 C10            1.5037     2.0624    -0.1310 C.ar    
  11 C11            0.4794    -2.0761    -0.5381 C.2     
  12 O12            1.1347    -2.7234     0.2438 O.2     
  13 O13           -0.5293    -2.6545    -1.2087 O.3     
  14 O14            0.8211     4.3284     0.1309 O.3     
  15 O15            4.8278     0.6603    -0.5574 O.3     
  16 C16           -0.9032    -0.3407     0.9975 C.2     
  17 O17           -1.0445    -1.5447     1.0329 O.2     
  18 C18           -1.6729     0.5367     1.9508 C.3     
  19 C19           -2.5395    -0.3220     2.8355 C.ar    
  20 C20           -2.0115    -0.8841     3.9885 C.ar    
  21 C21           -2.8092    -1.6739     4.8029 C.ar    
  22 C22           -4.1297    -1.9005     4.4661 C.ar    
  23 C23           -4.6576    -1.3381     3.3136 C.ar    
  24 C24           -3.8609    -0.5445     2.5013 C.ar    
  25 O25           -5.9574    -1.5611     2.9821 O.3     
  26 O26           -0.7117    -0.6612     4.3201 O.3     
  27 H27           -0.4661     1.9803    -0.9493 H       
  28 H28           -0.4050     2.1549     0.8202 H       
  29 H29            0.6238    -0.3595    -1.8051 H       
  30 H30            2.4699    -0.8053     0.5724 H       
  31 H31            2.9020    -0.7736    -1.1505 H       
  32 H32            5.1675     3.2419    -0.3684 H       
  33 H33            3.3653     4.8943    -0.0531 H       
  34 H34           -0.6934    -3.5911    -1.0328 H       
  35 H35            0.4529     4.6692    -0.6957 H       
  36 H36            5.0332     0.4720    -1.4834 H       
  37 H37           -0.9749     1.1041     2.5664 H       
  38 H38           -2.3007     1.2249     1.3849 H       
  39 H39           -2.3979    -2.1122     5.7002 H       
  40 H40           -4.7508    -2.5158     5.1001 H       
  41 H41           -4.2732    -0.1032     1.6059 H       
  42 H42           -6.5732    -0.9100     3.3452 H       
  43 H43           -0.5756     0.1191     4.8748 H       
@<TRIPOS>BOND
   1    1    2 1
   2    1   10 1
   3    1   27 1
   4    1   28 1
   5    2    3 1
   6    2   16 am
   7    3    4 1
   8    3   11 1
   9    3   29 1
  10    4    5 1
  11    4   30 1
  12    4   31 1
  13    5    6 ar
  14    5   10 ar
  15    6    7 ar
  16    6   15 1
  17    7    8 ar
  18    7   32 1
  19    8    9 ar
  20    8   33 1
  21    9   10 ar
  22    9   14 1
  23   11   12 2
  24   11   13 1
  25   13   34 1
  26   14   35 1
  27   15   36 1
  28   16   17 2
  29   16   18 1
  30   18   19 1
  31   18   37 1
  32   18   38 1
  33   19   20 ar
  34   19   24 ar
  35   20   21 ar
  36   20   26 1
  37   21   22 ar
  38   21   39 1
  39   22   23 ar
  40   22   40 1
  41   23   24 ar
  42   23   25 1
  43   24   41 1
  44   25   42 1
  45   26   43 1

#	End of record

