#	Name: ASD01920048
#	Creating user name:	WinNT
#	Creation time:	15. 06. 2019 20:11

#	Modifying user name:	WinNT
#	Modification time:	15. 06. 2019 20:11

#	Program:	/corina/corina34_cracker 3.40 0067  02.08.2006

@<TRIPOS>MOLECULE
ASD01920048
  56   58    0    0    0
SMALL
NO_CHARGES


@<TRIPOS>ATOM
   1 N1            -0.0151     1.3584    -0.0304 N.pl3   
   2 C2             0.0030    -0.0091    -0.0116 C.2     
   3 C3            -1.2599    -0.4662     0.0036 C.2     
   4 C4            -2.1305     0.7176    -0.0067 C.2     
   5 C5            -1.2850     1.8105    -0.0219 C.2     
   6 C6             1.2424    -0.8664    -0.0089 C.3     
   7 C7            -1.7089     3.2566    -0.0366 C.3     
   8 C8             1.1216     2.1715    -0.0497 C.ar    
   9 C9            -3.5948     0.7356     0.0027 C.2     
  10 O10           -4.1887     1.7937    -0.0081 O.2     
  11 C11           -4.3641    -0.5601     0.0258 C.3     
  12 O12           -5.7657    -0.2818     0.0311 O.3     
  13 C13           -6.6066    -1.3492     0.0515 C.ar    
  14 C14           -7.9781    -1.1513     0.0578 C.ar    
  15 C15            1.9741     2.1460    -1.1482 C.ar    
  16 C16            3.0949     2.9456    -1.1708 C.ar    
  17 C17            3.3750     3.7839    -0.0881 C.ar    
  18 C18            2.5156     3.8072     1.0139 C.ar    
  19 C19            1.3941     3.0083     1.0272 C.ar    
  20 C20            4.5750     4.6418    -0.1082 C.2     
  21 O21            5.3213     4.6202    -1.0667 O.2     
  22 O22            4.8435     5.4494     0.9365 O.3     
  23 C23            6.0411     6.2655     0.8480 C.3     
  24 C24           -8.8343    -2.2439     0.0787 C.ar    
  25 C25           -8.3136    -3.5319     0.0932 C.ar    
  26 C26           -6.9456    -3.7248     0.0869 C.ar    
  27 C27           -6.0921    -2.6385     0.0603 C.ar    
  28 N28          -10.2173    -2.0486     0.0855 N.pl3   
  29 C29          -10.7653    -0.6949     0.2011 C.3     
  30 C30          -11.1198    -3.1975    -0.0229 C.3     
  31 H31           -1.5735    -1.4995     0.0198 H       
  32 H32            1.5488    -1.0589     1.0192 H       
  33 H33            1.0311    -1.8121    -0.5082 H       
  34 H34            2.0436    -0.3484    -0.5359 H       
  35 H35           -1.8080     3.6166     0.9874 H       
  36 H36           -0.9587     3.8498    -0.5594 H       
  37 H37           -2.6668     3.3492    -0.5486 H       
  38 H38           -4.1136    -1.1472    -0.8578 H       
  39 H39           -4.1019    -1.1224     0.9220 H       
  40 H40           -8.3802    -0.1490     0.0468 H       
  41 H41            1.7570     1.4979    -1.9844 H       
  42 H42            3.7569     2.9247    -2.0238 H       
  43 H43            2.7290     4.4535     1.8525 H       
  44 H44            0.7294     3.0259     1.8782 H       
  45 H45            6.9136     5.6204     0.7448 H       
  46 H46            5.9702     6.9221    -0.0191 H       
  47 H47            6.1387     6.8667     1.7520 H       
  48 H48           -8.9786    -4.3827     0.1098 H       
  49 H49           -6.5425    -4.7267     0.0982 H       
  50 H50           -5.0232    -2.7925     0.0555 H       
  51 H51          -10.8935    -0.2687    -0.7939 H       
  52 H52          -11.7304    -0.7356     0.7061 H       
  53 H53          -10.0798    -0.0734     0.7771 H       
  54 H54          -10.5370    -4.1025    -0.1946 H       
  55 H55          -11.6884    -3.3014     0.9012 H       
  56 H56          -11.8056    -3.0434    -0.8560 H       
@<TRIPOS>BOND
   1    1    2 1
   2    1    8 1
   3    1    5 1
   4    2    3 2
   5    2    6 1
   6    3    4 1
   7    3   31 1
   8    4    5 2
   9    4    9 1
  10    5    7 1
  11    6   32 1
  12    6   33 1
  13    6   34 1
  14    7   35 1
  15    7   36 1
  16    7   37 1
  17    8   15 ar
  18    8   19 ar
  19    9   10 2
  20    9   11 1
  21   11   12 1
  22   11   38 1
  23   11   39 1
  24   12   13 1
  25   13   14 ar
  26   13   27 ar
  27   14   24 ar
  28   14   40 1
  29   15   16 ar
  30   15   41 1
  31   16   17 ar
  32   16   42 1
  33   17   18 ar
  34   17   20 1
  35   18   19 ar
  36   18   43 1
  37   19   44 1
  38   20   21 2
  39   20   22 1
  40   22   23 1
  41   23   45 1
  42   23   46 1
  43   23   47 1
  44   24   25 ar
  45   24   28 1
  46   25   26 ar
  47   25   48 1
  48   26   27 ar
  49   26   49 1
  50   27   50 1
  51   28   29 1
  52   28   30 1
  53   29   51 1
  54   29   52 1
  55   29   53 1
  56   30   54 1
  57   30   55 1
  58   30   56 1

#	End of record

