#	Name: ASD00172054
#	Creating user name:	WinNT
#	Creation time:	15. 06. 2019 18:33

#	Modifying user name:	WinNT
#	Modification time:	15. 06. 2019 18:33

#	Program:	/corina/corina34_cracker 3.40 0067  02.08.2006

@<TRIPOS>MOLECULE
ASD00172054
  42   44    0    0    0
SMALL
NO_CHARGES


@<TRIPOS>ATOM
   1 C1            -0.0226     1.4337     0.1004 C.ar    
   2 C2             0.0093     0.0518     0.0815 C.ar    
   3 C3            -1.1715    -0.6667     0.0659 C.ar    
   4 C4            -2.3843    -0.0034     0.0695 C.ar    
   5 C5            -2.4163     1.3785     0.0893 C.ar    
   6 C6            -1.2354     2.0969     0.1093 C.ar    
   7 C7            -3.6716    -0.7867     0.0515 C.3     
   8 C8            -4.1146    -1.0730     1.4877 C.3     
   9 C9            -3.0761    -1.9085     2.2095 C.2     
  10 N10           -3.6992    -3.0560     2.5430 N.am    
  11 C11           -4.9739    -3.0615     2.1364 C.2     
  12 N12           -5.3150    -1.9268     1.4994 N.am    
  13 O13           -5.7380    -3.9882     2.3216 O.2     
  14 C14           -6.6249    -1.6032     0.9289 C.3     
  15 C15           -4.3722     0.2338     2.2405 C.3     
  16 O16           -1.9242    -1.6075     2.4386 O.2     
  17 C17           -3.0872    -4.1136     3.2304 C.ar    
  18 C18           -3.8413    -5.2040     3.6421 C.ar    
  19 C19           -3.2356    -6.2456     4.3198 C.ar    
  20 C20           -1.8788    -6.2018     4.5882 C.ar    
  21 C21           -1.1251    -5.1159     4.1788 C.ar    
  22 C22           -1.7252    -4.0747     3.4954 C.ar    
  23 Cl23           0.5768    -5.0644     4.5174 Cl      
  24 Cl24          -4.1780    -7.6095     4.8349 Cl      
  25 N25            1.2418     2.2030     0.1171 N.pl3   
  26 O26            2.3104     1.6186     0.1142 O.2     
  27 O27            1.2136     3.4206     0.1336 O.2     
  28 H28            0.9568    -0.4664     0.0787 H       
  29 H29           -1.1466    -1.7463     0.0505 H       
  30 H30           -3.3638     1.8967     0.0917 H       
  31 H31           -1.2604     3.1765     0.1247 H       
  32 H32           -4.4421    -0.2078    -0.4578 H       
  33 H33           -3.5167    -1.7282    -0.4755 H       
  34 H34           -7.3094    -2.4349     1.0957 H       
  35 H35           -7.0186    -0.7069     1.4082 H       
  36 H36           -6.5215    -1.4270    -0.1418 H       
  37 H37           -5.1564     0.7964     1.7340 H       
  38 H38           -4.6862     0.0100     3.2600 H       
  39 H39           -3.4574     0.8260     2.2639 H       
  40 H40           -4.9004    -5.2383     3.4334 H       
  41 H41           -1.4075    -7.0161     5.1184 H       
  42 H42           -1.1364    -3.2276     3.1758 H       
@<TRIPOS>BOND
   1    1    2 ar
   2    1   25 1
   3    1    6 ar
   4    2    3 ar
   5    2   28 1
   6    3    4 ar
   7    3   29 1
   8    4    5 ar
   9    4    7 1
  10    5    6 ar
  11    5   30 1
  12    6   31 1
  13    7    8 1
  14    7   32 1
  15    7   33 1
  16    8    9 1
  17    8   15 1
  18    8   12 1
  19    9   10 am
  20    9   16 2
  21   10   11 am
  22   10   17 1
  23   11   12 am
  24   11   13 2
  25   12   14 1
  26   14   34 1
  27   14   35 1
  28   14   36 1
  29   15   37 1
  30   15   38 1
  31   15   39 1
  32   17   18 ar
  33   17   22 ar
  34   18   19 ar
  35   18   40 1
  36   19   20 ar
  37   19   24 1
  38   20   21 ar
  39   20   41 1
  40   21   22 ar
  41   21   23 1
  42   22   42 1
  43   25   26 2
  44   25   27 2

#	End of record

