#	Name: ASD02398009
#	Creating user name:	WinNT
#	Creation time:	15. 06. 2019 20:20

#	Modifying user name:	WinNT
#	Modification time:	15. 06. 2019 20:20

#	Program:	/corina/corina34_cracker 3.40 0067  02.08.2006

@<TRIPOS>MOLECULE
ASD02398009
  57   60    0    0    0
SMALL
NO_CHARGES


@<TRIPOS>ATOM
   1 C1            -0.8240     0.9989     0.3595 C.ar    
   2 C2            -0.3838    -0.3279     0.3234 C.ar    
   3 C3            -1.2838    -1.3605     0.5747 C.ar    
   4 C4            -2.6034    -1.0705     0.8576 C.ar    
   5 C5            -3.0360     0.2431     0.8926 C.ar    
   6 C6            -2.1500     1.2759     0.6500 C.ar    
   7 C7            -3.5765    -2.1888     1.1289 C.3     
   8 C8            -3.5059    -2.5742     2.5840 C.2     
   9 O9            -2.6804    -2.0650     3.3045 O.2     
  10 O10           -4.3602    -3.4831     3.0798 O.3     
  11 C11            1.0352    -0.6340     0.0184 C.ar    
  12 C12            2.0375    -0.2725     0.9169 C.ar    
  13 C13            1.3705    -1.2893    -1.1647 C.ar    
  14 C14            2.6925    -1.5721    -1.4432 C.ar    
  15 C15            3.6835    -1.2063    -0.5504 C.ar    
  16 C16            3.3559    -0.5602     0.6282 C.ar    
  17 C17            1.6823     0.4318     2.2010 C.3     
  18 N18            2.8808     0.5646     3.0329 N.am    
  19 C19            3.7890     1.5456     2.9402 C.2     
  20 O20            4.7929     1.4382     3.8177 O.3     
  21 C21            4.5955     0.2509     4.6388 C.3     
  22 C22            3.2803    -0.3536     4.1103 C.3     
  23 O23            3.7082     2.4499     2.1326 O.2     
  24 O24            0.0468     2.0128     0.1162 O.3     
  25 C25           -0.4742     3.3424     0.1703 C.3     
  26 C26            3.5209    -1.7567     3.5496 C.3     
  27 C27            5.7376    -0.7148     4.4544 C.ar    
  28 C28            6.1596    -1.4966     5.5135 C.ar    
  29 C29            6.3597    -0.8229     3.2247 C.ar    
  30 C30            7.4073    -1.7087     3.0555 C.ar    
  31 C31            7.8333    -2.4861     4.1162 C.ar    
  32 C32            7.2073    -2.3824     5.3444 C.ar    
  33 H33           -0.9497    -2.3872     0.5478 H       
  34 H34           -4.0699     0.4629     1.1147 H       
  35 H35           -2.4935     2.2994     0.6787 H       
  36 H36           -4.5868    -1.8574     0.8893 H       
  37 H37           -3.3209    -3.0504     0.5120 H       
  38 H38           -4.2764    -3.6980     4.0189 H       
  39 H39            0.5974    -1.5758    -1.8624 H       
  40 H40            2.9535    -2.0803    -2.3597 H       
  41 H41            4.7166    -1.4299    -0.7722 H       
  42 H42            4.1338    -0.2768     1.3217 H       
  43 H43            1.2855     1.4215     1.9748 H       
  44 H44            0.9303    -0.1473     2.7370 H       
  45 H45            4.4915     0.5252     5.6886 H       
  46 H46            2.5269    -0.3788     4.8976 H       
  47 H47            0.3235     4.0541    -0.0423 H       
  48 H48           -1.2664     3.4526    -0.5702 H       
  49 H49           -0.8771     3.5346     1.1647 H       
  50 H50            3.9392    -2.3929     4.3296 H       
  51 H51            2.5760    -2.1774     3.2056 H       
  52 H52            4.2187    -1.6995     2.7143 H       
  53 H53            5.6710    -1.4151     6.4732 H       
  54 H54            6.0269    -0.2156     2.3959 H       
  55 H55            7.8928    -1.7937     2.0945 H       
  56 H56            8.6516    -3.1784     3.9840 H       
  57 H57            7.5401    -2.9897     6.1731 H       
@<TRIPOS>BOND
   1    1    2 ar
   2    1   24 1
   3    1    6 ar
   4    2    3 ar
   5    2   11 1
   6    3    4 ar
   7    3   33 1
   8    4    5 ar
   9    4    7 1
  10    5    6 ar
  11    5   34 1
  12    6   35 1
  13    7    8 1
  14    7   36 1
  15    7   37 1
  16    8    9 2
  17    8   10 1
  18   10   38 1
  19   11   12 ar
  20   11   13 ar
  21   12   17 1
  22   12   16 ar
  23   13   14 ar
  24   13   39 1
  25   14   15 ar
  26   14   40 1
  27   15   16 ar
  28   15   41 1
  29   16   42 1
  30   17   18 1
  31   17   43 1
  32   17   44 1
  33   18   19 am
  34   18   22 1
  35   19   20 1
  36   19   23 2
  37   20   21 1
  38   21   22 1
  39   21   27 1
  40   21   45 1
  41   22   26 1
  42   22   46 1
  43   24   25 1
  44   25   47 1
  45   25   48 1
  46   25   49 1
  47   26   50 1
  48   26   51 1
  49   26   52 1
  50   27   28 ar
  51   27   29 ar
  52   28   32 ar
  53   28   53 1
  54   29   30 ar
  55   29   54 1
  56   30   31 ar
  57   30   55 1
  58   31   32 ar
  59   31   56 1
  60   32   57 1

#	End of record

