#	Name: ASD01840193
#	Creating user name:	WinNT
#	Creation time:	15. 06. 2019 19:37

#	Modifying user name:	WinNT
#	Modification time:	15. 06. 2019 19:37

#	Program:	/corina/corina34_cracker 3.40 0067  02.08.2006

@<TRIPOS>MOLECULE
ASD01840193
  45   48    0    0    0
SMALL
NO_CHARGES


@<TRIPOS>ATOM
   1 C1             0.9640     0.1369     3.6508 C.ar    
   2 C2             1.2863    -1.1876     3.9363 C.ar    
   3 N3             2.4732    -1.6810     3.6757 N.ar    
   4 C4             3.4317    -0.9328     3.1218 C.ar    
   5 C5             3.1705     0.4244     2.8050 C.ar    
   6 C6             1.8971     0.9580     3.0837 C.ar    
   7 C7             1.5726     2.3946     2.7644 C.3     
   8 C8             0.2434    -2.0776     4.5617 C.3     
   9 C9             4.7018    -1.4743     2.8476 C.ar    
  10 C10            5.6647    -0.7009     2.2855 C.ar    
  11 C11            5.4158     0.6464     1.9679 C.ar    
  12 C12            4.1764     1.2096     2.2246 C.ar    
  13 C13            6.4827     1.4660     1.3567 C.2     
  14 N14            7.6899     0.9221     1.1053 N.am    
  15 O15            6.2714     2.6309     1.0807 O.2     
  16 C16            8.7476     1.7348     0.4994 C.3     
  17 C17           10.1694     1.2365     0.8151 C.3     
  18 C18            9.0499     1.3668    -0.9644 C.3     
  19 N19           10.4769     1.5192    -0.6044 N.3     
  20 C20           11.2435     0.4998    -1.1613 C.ar    
  21 C21           12.5163     0.7582    -1.6692 C.ar    
  22 C22           13.2450    -0.2801    -2.2135 C.ar    
  23 N23           12.7506    -1.5044    -2.2567 N.ar    
  24 C24           11.5495    -1.7887    -1.7860 C.ar    
  25 C25           10.7609    -0.8071    -1.2203 C.ar    
  26 Cl26          14.8308     0.0269    -2.8496 Cl      
  27 Cl27          10.9583    -3.4186    -1.8732 Cl      
  28 H28           -0.0236     0.5131     3.8733 H       
  29 H29            1.1722     2.4604     1.7528 H       
  30 H30            0.8324     2.7661     3.4731 H       
  31 H31            2.4786     2.9964     2.8365 H       
  32 H32           -0.3299    -2.5720     3.7776 H       
  33 H33            0.7317    -2.8283     5.1831 H       
  34 H34           -0.4258    -1.4762     5.1770 H       
  35 H35            4.9104    -2.5069     3.0854 H       
  36 H36            6.6360    -1.1258     2.0795 H       
  37 H37            3.9869     2.2443     1.9800 H       
  38 H38            7.8585    -0.0074     1.3256 H       
  39 H39            8.6102     2.8033     0.6655 H       
  40 H40           10.7114     1.8707     1.5166 H       
  41 H41           10.2169     0.1784     1.0723 H       
  42 H42            8.7700     0.3467    -1.2276 H       
  43 H43            8.6974     2.1051    -1.6847 H       
  44 H44           12.9260     1.7569    -1.6376 H       
  45 H45            9.7798    -1.0462    -0.8373 H       
@<TRIPOS>BOND
   1    1    2 ar
   2    1    6 ar
   3    1   28 1
   4    2    3 ar
   5    2    8 1
   6    3    4 ar
   7    4    5 ar
   8    4    9 ar
   9    5    6 ar
  10    5   12 ar
  11    6    7 1
  12    7   29 1
  13    7   30 1
  14    7   31 1
  15    8   32 1
  16    8   33 1
  17    8   34 1
  18    9   10 ar
  19    9   35 1
  20   10   11 ar
  21   10   36 1
  22   11   12 ar
  23   11   13 1
  24   12   37 1
  25   13   14 am
  26   13   15 2
  27   14   16 1
  28   14   38 1
  29   16   17 1
  30   16   18 1
  31   16   39 1
  32   17   19 1
  33   17   40 1
  34   17   41 1
  35   18   19 1
  36   18   42 1
  37   18   43 1
  38   19   20 1
  39   20   21 ar
  40   20   25 ar
  41   21   22 ar
  42   21   44 1
  43   22   23 ar
  44   22   26 1
  45   23   24 ar
  46   24   25 ar
  47   24   27 1
  48   25   45 1

#	End of record

