#	Name: ASD02508252
#	Creating user name:	WinNT
#	Creation time:	15. 06. 2019 20:24

#	Modifying user name:	WinNT
#	Modification time:	15. 06. 2019 20:24

#	Program:	/corina/corina34_cracker 3.40 0067  02.08.2006

@<TRIPOS>MOLECULE
ASD02508252
  43   45    0    0    0
SMALL
NO_CHARGES


@<TRIPOS>ATOM
   1 C1             0.4316     1.0760     1.0427 C.ar    
   2 C2             0.3191    -0.2158     0.5294 C.ar    
   3 C3            -0.9342    -0.7880     0.3767 C.ar    
   4 C4            -2.0639    -0.0776     0.7330 C.ar    
   5 C5            -1.9511     1.2046     1.2420 C.ar    
   6 C6            -0.7062     1.7810     1.4028 C.ar    
   7 S7            -3.6560    -0.8069     0.5382 S.o2    
   8 N8            -3.9547    -1.7025     1.8986 N.am    
   9 C9            -3.1213    -2.7765     2.2255 C.ar    
  10 N10            1.7937     1.3736     1.0780 N.am    
  11 C11            2.4554     0.2993     0.6042 C.2     
  12 O12            1.5746    -0.6581     0.2733 O.3     
  13 O13           -4.5913     0.2629     0.5486 O.2     
  14 O14           -3.5451    -1.7318    -0.5349 O.2     
  15 C15            2.3952     2.6251     1.5448 C.3     
  16 O16            3.6631     0.2110     0.4936 O.2     
  17 C17           -2.6610    -2.9285     3.5271 C.ar    
  18 C18           -2.7573    -3.6959     1.2506 C.ar    
  19 C19           -1.9337    -4.7566     1.5752 C.ar    
  20 C20           -1.4714    -4.9040     2.8714 C.ar    
  21 C21           -1.8373    -3.9908     3.8477 C.ar    
  22 C22            2.6699     3.5368     0.3471 C.3     
  23 Cl23          -1.2560    -4.1782     5.4727 Cl      
  24 C24           -0.5860     3.1769     1.9577 C.3     
  25 F25           -0.6664    -5.9422     3.1866 F       
  26 O26            1.4316     3.9149    -0.2575 O.3     
  27 C27            1.5764     4.7716    -1.3921 C.3     
  28 H28           -1.0273    -1.7879    -0.0206 H       
  29 H29           -2.8388     1.7544     1.5178 H       
  30 H30           -4.7079    -1.4821     2.4687 H       
  31 H31            1.7107     3.1234     2.2312 H       
  32 H32            3.3317     2.4086     2.0589 H       
  33 H33           -2.9463    -2.2169     4.2878 H       
  34 H34           -3.1182    -3.5820     0.2390 H       
  35 H35           -1.6506    -5.4715     0.8169 H       
  36 H36            3.1976     4.4293     0.6833 H       
  37 H37            3.2824     3.0052    -0.3812 H       
  38 H38           -0.4954     3.1300     3.0429 H       
  39 H39            0.2977     3.6592     1.5399 H       
  40 H40           -1.4734     3.7513     1.6917 H       
  41 H41            0.5921     5.0128    -1.7933 H       
  42 H42            2.0814     5.6898    -1.0919 H       
  43 H43            2.1663     4.2657    -2.1564 H       
@<TRIPOS>BOND
   1    1    2 ar
   2    1   10 1
   3    1    6 ar
   4    2    3 ar
   5    2   12 1
   6    3    4 ar
   7    3   28 1
   8    4    5 ar
   9    4    7 1
  10    5    6 ar
  11    5   29 1
  12    6   24 1
  13    7    8 am
  14    7   13 2
  15    7   14 2
  16    8    9 1
  17    8   30 1
  18    9   17 ar
  19    9   18 ar
  20   10   11 am
  21   10   15 1
  22   11   12 1
  23   11   16 2
  24   15   22 1
  25   15   31 1
  26   15   32 1
  27   17   21 ar
  28   17   33 1
  29   18   19 ar
  30   18   34 1
  31   19   20 ar
  32   19   35 1
  33   20   21 ar
  34   20   25 1
  35   21   23 1
  36   22   26 1
  37   22   36 1
  38   22   37 1
  39   24   38 1
  40   24   39 1
  41   24   40 1
  42   26   27 1
  43   27   41 1
  44   27   42 1
  45   27   43 1

#	End of record

