#	Name: ASD09790011
#	Creating user name:	WinNT
#	Creation time:	15. 06. 2019 21:24

#	Modifying user name:	WinNT
#	Modification time:	15. 06. 2019 21:24

#	Program:	/corina/corina34_cracker 3.40 0067  02.08.2006

@<TRIPOS>MOLECULE
ASD09790011
  41   44    0    0    0
SMALL
NO_CHARGES


@<TRIPOS>ATOM
   1 C1             0.3510     0.8897     0.5794 C.2     
   2 C2             0.5666    -0.5148     0.9918 C.ar    
   3 C3             1.8373    -0.8873     1.4571 C.ar    
   4 O4             2.8401     0.0101     1.5376 O.3     
   5 C5             2.7846     1.2004     0.9067 C.ar    
   6 C6             1.5680     1.7047     0.4133 C.ar    
   7 C7            -0.4629    -1.4505     0.9205 C.ar    
   8 C8            -0.2269    -2.7527     1.3073 C.ar    
   9 C9             1.0277    -3.1260     1.7641 C.ar    
  10 C10            2.0530    -2.2073     1.8400 C.ar    
  11 C11            1.5204     2.9513    -0.2231 C.ar    
  12 C12            3.9411     1.9482     0.7363 C.ar    
  13 C13            3.8898     3.1778     0.0978 C.ar    
  14 C14            2.6851     3.6814    -0.3789 C.ar    
  15 O15           -0.7622     1.3428     0.3843 O.2     
  16 O16            0.3411     3.4391    -0.6836 O.3     
  17 O17            5.0292     3.8981    -0.0637 O.3     
  18 C18            5.8757     3.4952    -1.0322 C.2     
  19 C19            7.1833     4.1578    -1.1909 C.ar    
  20 O20            5.5613     2.5859    -1.7744 O.2     
  21 C21            7.5495     5.2003    -0.3344 C.ar    
  22 C22            8.7714     5.8163    -0.4861 C.ar    
  23 C23            8.0629     3.7415    -2.1947 C.ar    
  24 C24            9.2828     4.3630    -2.3395 C.ar    
  25 C25            9.6404     5.4033    -1.4896 C.ar    
  26 O26           10.8436     6.0134    -1.6360 O.3     
  27 C27           11.1473     7.0751    -0.7289 C.3     
  28 H28           -1.4397    -1.1577     0.5649 H       
  29 H29           -1.0208    -3.4830     1.2548 H       
  30 H30            1.2041    -4.1485     2.0637 H       
  31 H31            3.0252    -2.5129     2.1973 H       
  32 H32            4.8845     1.5711     1.1028 H       
  33 H33            2.6584     4.6425    -0.8708 H       
  34 H34           -0.1427     3.9726    -0.0384 H       
  35 H35            6.8747     5.5222     0.4449 H       
  36 H36            9.0550     6.6217     0.1751 H       
  37 H37            7.7859     2.9333    -2.8555 H       
  38 H38            9.9630     4.0418    -3.1145 H       
  39 H39           10.4037     7.8653    -0.8324 H       
  40 H40           11.1339     6.6952     0.2926 H       
  41 H41           12.1359     7.4746    -0.9551 H       
@<TRIPOS>BOND
   1    1    2 1
   2    1    6 1
   3    1   15 2
   4    2    3 ar
   5    2    7 ar
   6    3    4 1
   7    3   10 ar
   8    4    5 1
   9    5   12 ar
  10    5    6 ar
  11    6   11 ar
  12    7    8 ar
  13    7   28 1
  14    8    9 ar
  15    8   29 1
  16    9   10 ar
  17    9   30 1
  18   10   31 1
  19   11   14 ar
  20   11   16 1
  21   12   13 ar
  22   12   32 1
  23   13   14 ar
  24   13   17 1
  25   14   33 1
  26   16   34 1
  27   17   18 1
  28   18   19 1
  29   18   20 2
  30   19   23 ar
  31   19   21 ar
  32   21   22 ar
  33   21   35 1
  34   22   25 ar
  35   22   36 1
  36   23   24 ar
  37   23   37 1
  38   24   25 ar
  39   24   38 1
  40   25   26 1
  41   26   27 1
  42   27   39 1
  43   27   40 1
  44   27   41 1

#	End of record

