#	Name: ASD01890160
#	Creating user name:	WinNT
#	Creation time:	15. 06. 2019 19:50

#	Modifying user name:	WinNT
#	Modification time:	15. 06. 2019 19:50

#	Program:	/corina/corina34_cracker 3.40 0067  02.08.2006

@<TRIPOS>MOLECULE
ASD01890160
  41   42    0    0    0
SMALL
NO_CHARGES


@<TRIPOS>ATOM
   1 C1            -0.0177     1.4571     0.0101 C.2     
   2 C2             0.0021    -0.0041     0.0020 C.2     
   3 C3             1.1803    -0.6631    -0.0128 C.2     
   4 C4             1.2007    -2.1700    -0.0211 C.3     
   5 C5             1.3196    -2.6705    -1.4620 C.3     
   6 O6             1.0273     2.0796     0.0034 O.2     
   7 O7            -1.1952     2.1158     0.0192 O.3     
   8 C8             2.4436     0.0894    -0.0208 C.ar    
   9 C9             2.8775     0.7256    -1.1916 C.ar    
  10 C10            4.0659     1.4307    -1.1889 C.ar    
  11 C11            4.8247     1.5086    -0.0351 C.ar    
  12 C12            4.4020     0.8819     1.1248 C.ar    
  13 C13            3.2163     0.1791     1.1417 C.ar    
  14 F14            2.1368     0.6495    -2.3189 F       
  15 C15            1.3400    -4.1773    -1.4703 C.ar    
  16 C16            0.1558    -4.8838    -1.5671 C.ar    
  17 C17            0.1739    -6.2658    -1.5748 C.ar    
  18 C18            1.3775    -6.9421    -1.4855 C.ar    
  19 C19            2.5624    -6.2345    -1.3886 C.ar    
  20 C20            2.5435    -4.8525    -1.3867 C.ar    
  21 Cl21           1.4010    -8.6779    -1.4944 Cl      
  22 C22           -1.1398     3.5437     0.0267 C.3     
  23 C23           -2.5614     4.1092     0.0365 C.3     
  24 H24           -0.9258    -0.5567     0.0079 H       
  25 H25            2.0530    -2.5250     0.5584 H       
  26 H26            0.2785    -2.5483     0.4200 H       
  27 H27            0.4674    -2.3155    -2.0414 H       
  28 H28            2.2418    -2.2922    -1.9031 H       
  29 H29            4.4031     1.9219    -2.0897 H       
  30 H30            5.7526     2.0611    -0.0392 H       
  31 H31            5.0012     0.9478     2.0209 H       
  32 H32            2.8867    -0.3047     2.0493 H       
  33 H33           -0.7838    -4.3558    -1.6365 H       
  34 H34           -0.7514    -6.8177    -1.6501 H       
  35 H35            3.5023    -6.7618    -1.3188 H       
  36 H36            3.4687    -4.2999    -1.3155 H       
  37 H37           -0.6080     3.8820     0.9160 H       
  38 H38           -0.6165     3.8917    -0.8639 H       
  39 H39           -2.5191     5.1984     0.0423 H       
  40 H40           -3.0932     3.7709    -0.8528 H       
  41 H41           -3.0847     3.7612     0.9271 H       
@<TRIPOS>BOND
   1    1    2 1
   2    1    6 2
   3    1    7 1
   4    2    3 2
   5    2   24 1
   6    3    4 1
   7    3    8 1
   8    4    5 1
   9    4   25 1
  10    4   26 1
  11    5   15 1
  12    5   27 1
  13    5   28 1
  14    7   22 1
  15    8    9 ar
  16    8   13 ar
  17    9   10 ar
  18    9   14 1
  19   10   11 ar
  20   10   29 1
  21   11   12 ar
  22   11   30 1
  23   12   13 ar
  24   12   31 1
  25   13   32 1
  26   15   16 ar
  27   15   20 ar
  28   16   17 ar
  29   16   33 1
  30   17   18 ar
  31   17   34 1
  32   18   19 ar
  33   18   21 1
  34   19   20 ar
  35   19   35 1
  36   20   36 1
  37   22   23 1
  38   22   37 1
  39   22   38 1
  40   23   39 1
  41   23   40 1
  42   23   41 1

#	End of record

