#	Name: ASD03331935
#	Creating user name:	WinNT
#	Creation time:	15. 06. 2019 20:40

#	Modifying user name:	WinNT
#	Modification time:	15. 06. 2019 20:40

#	Program:	/corina/corina34_cracker 3.40 0067  02.08.2006

@<TRIPOS>MOLECULE
ASD03331935
  75   78    0    0    0
SMALL
NO_CHARGES


@<TRIPOS>ATOM
   1 C1            -1.3347     2.3243     0.6842 C.2     
   2 N2            -1.6247     0.9977     0.6279 N.pl3   
   3 C3            -0.4606     0.3153     0.8277 C.2     
   4 N4             0.5055     1.1824     1.0193 N.2     
   5 C5            -0.0012     2.4321     0.9401 C.2     
   6 C6             0.7539     3.6874     1.1009 C.2     
   7 O7             0.1826     4.7569     1.0065 O.2     
   8 N8             2.0774     3.6502     1.3526 N.am    
   9 C9             2.8280     4.8981     1.5124 C.3     
  10 C10            3.2528     5.4174     0.1374 C.3     
  11 C11            4.2156     4.4195    -0.5095 C.3     
  12 C12            4.0522     4.6437     2.3535 C.2     
  13 C13            2.0172     5.5822    -0.7497 C.3     
  14 C14            3.9507     6.7697     0.2962 C.3     
  15 O15            4.3918     3.5062     2.6017 O.2     
  16 N16            4.7698     5.6803     2.8300 N.am    
  17 C17            5.9999     5.4336     3.5864 C.3     
  18 C18           -2.9567     0.4273     0.4089 C.3     
  19 C19           -3.6232     1.1462    -0.7682 C.3     
  20 C20           -4.3601     2.3838    -0.2665 C.3     
  21 N21           -3.6592     2.9912     0.8666 N.3     
  22 C22           -2.3162     3.4493     0.4811 C.3     
  23 C23           -4.4448     4.0901     1.4438 C.3     
  24 C24           -0.3119    -1.1570     0.8284 C.ar    
  25 C25            0.8889    -1.7371     0.4282 C.ar    
  26 C26            1.0209    -3.1245     0.4321 C.ar    
  27 C27           -0.0506    -3.9233     0.8368 C.ar    
  28 C28           -1.2387    -3.3413     1.2320 C.ar    
  29 C29           -1.3737    -1.9671     1.2358 C.ar    
  30 C30            2.2923    -3.7491     0.0083 C.2     
  31 N31            2.8032    -4.7803     0.7097 N.am    
  32 O32            2.8767    -3.3326    -0.9728 O.2     
  33 C33            4.1115    -5.3579     0.3631 C.3     
  34 C34            4.9605    -5.4313     1.6374 C.3     
  35 O35            4.2198    -6.1042     2.6584 O.3     
  36 C36            3.0180    -5.4347     3.0472 C.3     
  37 C37            2.0721    -5.3579     1.8487 C.3     
  38 H38            2.5330     2.7971     1.4279 H       
  39 H39            2.1983     5.6406     2.0025 H       
  40 H40            3.7184     3.4561    -0.6227 H       
  41 H41            4.5182     4.7895    -1.4891 H       
  42 H42            5.0959     4.3021     0.1224 H       
  43 H43            1.3313     6.2931    -0.2889 H       
  44 H44            2.3198     5.9521    -1.7293 H       
  45 H45            1.5200     4.6188    -0.8628 H       
  46 H46            4.8279     6.6533     0.9326 H       
  47 H47            4.2582     7.1371    -0.6829 H       
  48 H48            3.2631     7.4820     0.7520 H       
  49 H49            4.4717     6.5898     2.6722 H       
  50 H50            6.7075     4.8887     2.9615 H       
  51 H51            6.4385     6.3850     3.8872 H       
  52 H52            5.7690     4.8434     4.4732 H       
  53 H53           -2.8654    -0.6351     0.1826 H       
  54 H54           -3.5615     0.5591     1.3061 H       
  55 H55           -2.8618     1.4449    -1.4886 H       
  56 H56           -4.3321     0.4727    -1.2498 H       
  57 H57           -4.4297     3.1111    -1.0754 H       
  58 H58           -5.3652     2.0998     0.0453 H       
  59 H59           -2.0294     4.2994     1.1002 H       
  60 H60           -2.3192     3.7454    -0.5679 H       
  61 H61           -5.4045     3.7074     1.7910 H       
  62 H62           -3.9012     4.5234     2.2834 H       
  63 H63           -4.6115     4.8550     0.6853 H       
  64 H64            1.7144    -1.1147     0.1157 H       
  65 H65            0.0502    -4.9986     0.8404 H       
  66 H66           -2.0646    -3.9634     1.5438 H       
  67 H67           -2.3056    -1.5182     1.5463 H       
  68 H68            3.9742    -6.3594    -0.0447 H       
  69 H69            4.6083    -4.7261    -0.3732 H       
  70 H70            5.8791    -5.9809     1.4317 H       
  71 H71            5.2056    -4.4227     1.9701 H       
  72 H72            2.5390    -5.9868     3.8558 H       
  73 H73            3.2561    -4.4261     3.3851 H       
  74 H74            1.2172    -4.7282     2.0954 H       
  75 H75            1.7282    -6.3587     1.5876 H       
@<TRIPOS>BOND
   1    1    2 1
   2    1    5 2
   3    1   22 1
   4    2    3 1
   5    2   18 1
   6    3    4 2
   7    3   24 1
   8    4    5 1
   9    5    6 1
  10    6    7 2
  11    6    8 am
  12    8    9 1
  13    8   38 1
  14    9   10 1
  15    9   12 1
  16    9   39 1
  17   10   11 1
  18   10   13 1
  19   10   14 1
  20   11   40 1
  21   11   41 1
  22   11   42 1
  23   12   15 2
  24   12   16 am
  25   13   43 1
  26   13   44 1
  27   13   45 1
  28   14   46 1
  29   14   47 1
  30   14   48 1
  31   16   17 1
  32   16   49 1
  33   17   50 1
  34   17   51 1
  35   17   52 1
  36   18   19 1
  37   18   53 1
  38   18   54 1
  39   19   20 1
  40   19   55 1
  41   19   56 1
  42   20   21 1
  43   20   57 1
  44   20   58 1
  45   21   22 1
  46   21   23 1
  47   22   59 1
  48   22   60 1
  49   23   61 1
  50   23   62 1
  51   23   63 1
  52   24   25 ar
  53   24   29 ar
  54   25   26 ar
  55   25   64 1
  56   26   27 ar
  57   26   30 1
  58   27   28 ar
  59   27   65 1
  60   28   29 ar
  61   28   66 1
  62   29   67 1
  63   30   31 am
  64   30   32 2
  65   31   33 1
  66   31   37 1
  67   33   34 1
  68   33   68 1
  69   33   69 1
  70   34   35 1
  71   34   70 1
  72   34   71 1
  73   35   36 1
  74   36   37 1
  75   36   72 1
  76   36   73 1
  77   37   74 1
  78   37   75 1

#	End of record

