#	Name: ASD05130106
#	Creating user name:	WinNT
#	Creation time:	15. 06. 2019 20:56

#	Modifying user name:	WinNT
#	Modification time:	15. 06. 2019 20:56

#	Program:	/corina/corina34_cracker 3.40 0067  02.08.2006

@<TRIPOS>MOLECULE
ASD05130106
  63   67    0    0    0
SMALL
NO_CHARGES


@<TRIPOS>ATOM
   1 N1             1.5903     3.0344    -0.0894 N.am    
   2 C2             3.0602     2.9899    -0.1059 C.3     
   3 C3             2.9571     1.6293    -0.8090 C.3     
   4 C4             1.6000     1.5638    -0.0947 C.3     
   5 C5             0.6488     3.9986    -0.0713 C.2     
   6 O6             0.9774     5.1691    -0.0654 O.2     
   7 N7            -0.6571     3.6652    -0.0596 N.am    
   8 O8             2.8665     1.7108    -2.2328 O.3     
   9 N9            -5.2689     5.0165     0.0093 N.am    
  10 C10           -6.1908     5.9911     0.1353 C.2     
  11 C11           -5.7738     7.3759     0.3689 C.2     
  12 C12           -4.4415     7.6734     0.4582 C.2     
  13 C13           -3.4927     6.6320     0.3223 C.ar    
  14 C14           -2.1190     6.8909     0.4063 C.ar    
  15 N15           -1.2509     5.9114     0.2791 N.ar    
  16 C16           -1.6268     4.6551     0.0674 C.ar    
  17 C17           -2.9664     4.3107    -0.0300 C.ar    
  18 C18           -3.9274     5.3078     0.0979 C.ar    
  19 O19           -7.3756     5.7197     0.0544 O.2     
  20 C20           -5.6989     3.6346    -0.2180 C.3     
  21 C21           -5.8088     3.3754    -1.7219 C.3     
  22 C22           -6.7881     8.4470     0.5069 C.ar    
  23 C23           -7.5314     8.5594     1.6829 C.ar    
  24 C24           -8.4766     9.5586     1.8096 C.ar    
  25 C25           -8.6893    10.4503     0.7726 C.ar    
  26 C26           -7.9523    10.3446    -0.4027 C.ar    
  27 C27           -6.9984     9.3485    -0.5351 C.ar    
  28 N28           -8.1709    11.2490    -1.4505 N.am    
  29 C29           -7.1398    11.6515    -2.2194 C.2     
  30 O30           -6.0359    11.1682    -2.0577 O.2     
  31 N31           -7.3324    12.5897    -3.1676 N.am    
  32 C32           -6.2863    12.9391    -4.0290 C.ar    
  33 C33           -6.5546    13.2720    -5.3502 C.ar    
  34 C34           -5.5199    13.6163    -6.1978 C.ar    
  35 C35           -4.2179    13.6297    -5.7320 C.ar    
  36 C36           -3.9475    13.2987    -4.4169 C.ar    
  37 C37           -4.9784    12.9590    -3.5628 C.ar    
  38 F38           -9.6154    11.4254     0.9019 F       
  39 Cl39          -7.2685     7.4430     2.9861 Cl      
  40 H40            3.5110     3.7654    -0.7252 H       
  41 H41            3.5039     2.9324     0.8880 H       
  42 H42            3.6805     0.8912    -0.4625 H       
  43 H43            1.6548     1.1264     0.9022 H       
  44 H44            0.8092     1.1267    -0.7045 H       
  45 H45           -0.9209     2.7352    -0.1397 H       
  46 H46            2.8017     0.8520    -2.6726 H       
  47 H47           -4.1180     8.6895     0.6297 H       
  48 H48           -1.7712     7.8990     0.5777 H       
  49 H49           -3.2586     3.2854    -0.2027 H       
  50 H50           -4.9693     2.9510     0.2162 H       
  51 H51           -6.6702     3.4746     0.2502 H       
  52 H52           -6.5384     4.0590    -2.1560 H       
  53 H53           -4.8375     3.5354    -2.1900 H       
  54 H54           -6.1287     2.3472    -1.8910 H       
  55 H55           -9.0513     9.6442     2.7200 H       
  56 H56           -6.4224     9.2680    -1.4451 H       
  57 H57           -9.0644    11.5853    -1.6224 H       
  58 H58           -8.1961    13.0229    -3.2530 H       
  59 H59           -7.5711    13.2614    -5.7147 H       
  60 H60           -5.7278    13.8749    -7.2255 H       
  61 H61           -3.4105    13.8989    -6.3969 H       
  62 H62           -2.9296    13.3097    -4.0563 H       
  63 H63           -4.7670    12.7053    -2.5345 H       
@<TRIPOS>BOND
   1    1    2 1
   2    1    4 1
   3    1    5 am
   4    2    3 1
   5    2   40 1
   6    2   41 1
   7    3    4 1
   8    3    8 1
   9    3   42 1
  10    4   43 1
  11    4   44 1
  12    5    6 2
  13    5    7 am
  14    7   16 1
  15    7   45 1
  16    8   46 1
  17    9   10 am
  18    9   18 1
  19    9   20 1
  20   10   11 1
  21   10   19 2
  22   11   12 2
  23   11   22 1
  24   12   13 1
  25   12   47 1
  26   13   14 ar
  27   13   18 ar
  28   14   15 ar
  29   14   48 1
  30   15   16 ar
  31   16   17 ar
  32   17   18 ar
  33   17   49 1
  34   20   21 1
  35   20   50 1
  36   20   51 1
  37   21   52 1
  38   21   53 1
  39   21   54 1
  40   22   23 ar
  41   22   27 ar
  42   23   24 ar
  43   23   39 1
  44   24   25 ar
  45   24   55 1
  46   25   26 ar
  47   25   38 1
  48   26   27 ar
  49   26   28 1
  50   27   56 1
  51   28   29 am
  52   28   57 1
  53   29   30 2
  54   29   31 am
  55   31   32 1
  56   31   58 1
  57   32   33 ar
  58   32   37 ar
  59   33   34 ar
  60   33   59 1
  61   34   35 ar
  62   34   60 1
  63   35   36 ar
  64   35   61 1
  65   36   37 ar
  66   36   62 1
  67   37   63 1

#	End of record

