#	Name: ASD01908184
#	Creating user name:	WinNT
#	Creation time:	15. 06. 2019 19:54

#	Modifying user name:	WinNT
#	Modification time:	15. 06. 2019 19:54

#	Program:	/corina/corina34_cracker 3.40 0067  02.08.2006

@<TRIPOS>MOLECULE
ASD01908184
  47   50    0    0    0
SMALL
NO_CHARGES


@<TRIPOS>ATOM
   1 C1            -0.0643     1.3625     0.3015 C.ar    
   2 C2            -0.0789    -0.0287     0.3220 C.ar    
   3 C3             1.0916    -0.7148     0.5983 C.ar    
   4 C4             2.2446     0.0130     0.8466 C.ar    
   5 C5             2.1917     1.4035     0.8108 C.ar    
   6 N6             1.0525     2.0304     0.5427 N.ar    
   7 N7            -1.2346     2.0585     0.0191 N.pl3   
   8 N8             4.7872     3.8674     1.4155 N.pl3   
   9 N9             5.5256     2.6795     1.4778 N.2     
  10 C10            4.7150     1.6752     1.2756 C.2     
  11 C11            3.4196     2.1924     1.0755 C.2     
  12 C12            3.5009     3.5521     1.1688 C.2     
  13 C13            5.3204     5.2201     1.5942 C.3     
  14 C14            6.0411     5.3056     2.9149 C.ar    
  15 C15            7.3908     5.0135     2.9848 C.ar    
  16 C16            8.0537     5.0911     4.1943 C.ar    
  17 C17            7.3642     5.4625     5.3394 C.ar    
  18 C18            6.0100     5.7551     5.2666 C.ar    
  19 C19            5.3529     5.6815     4.0537 C.ar    
  20 O20            8.0140     5.5392     6.5305 O.3     
  21 C21            7.2408     5.9280     7.6676 C.3     
  22 C22           -1.2640     3.4526     0.1324 C.ar    
  23 C23           -2.2417     4.1855    -0.5327 C.ar    
  24 C24           -2.2686     5.5629    -0.4185 C.ar    
  25 C25           -1.3245     6.2127     0.3557 C.ar    
  26 C26           -0.3501     5.4863     1.0190 C.ar    
  27 C27           -0.3215     4.1068     0.9131 C.ar    
  28 F28            0.5707     6.1245     1.7740 F       
  29 F29           -3.1638     3.5518    -1.2899 F       
  30 H30           -0.9938    -0.5677     0.1248 H       
  31 H31            1.1057    -1.7945     0.6203 H       
  32 H32            3.1733    -0.4928     1.0655 H       
  33 H33           -2.0305     1.5774    -0.2565 H       
  34 H34            4.9898     0.6308     1.2635 H       
  35 H35            2.6822     4.2486     1.0643 H       
  36 H36            6.0155     5.4464     0.7857 H       
  37 H37            4.5008     5.9385     1.5804 H       
  38 H38            7.9271     4.7241     2.0932 H       
  39 H39            9.1079     4.8625     4.2485 H       
  40 H40            5.4710     6.0444     6.1566 H       
  41 H41            4.2998     5.9138     3.9956 H       
  42 H42            7.8790     5.9494     8.5509 H       
  43 H43            6.8201     6.9194     7.4991 H       
  44 H44            6.4333     5.2118     7.8200 H       
  45 H45           -3.0274     6.1323    -0.9347 H       
  46 H46           -1.3471     7.2889     0.4428 H       
  47 H47            0.4363     3.5403     1.4340 H       
@<TRIPOS>BOND
   1    1    2 ar
   2    1    6 ar
   3    1    7 1
   4    2    3 ar
   5    2   30 1
   6    3    4 ar
   7    3   31 1
   8    4    5 ar
   9    4   32 1
  10    5    6 ar
  11    5   11 1
  12    7   22 1
  13    7   33 1
  14    8    9 1
  15    8   12 1
  16    8   13 1
  17    9   10 2
  18   10   11 1
  19   10   34 1
  20   11   12 2
  21   12   35 1
  22   13   14 1
  23   13   36 1
  24   13   37 1
  25   14   15 ar
  26   14   19 ar
  27   15   16 ar
  28   15   38 1
  29   16   17 ar
  30   16   39 1
  31   17   18 ar
  32   17   20 1
  33   18   19 ar
  34   18   40 1
  35   19   41 1
  36   20   21 1
  37   21   42 1
  38   21   43 1
  39   21   44 1
  40   22   23 ar
  41   22   27 ar
  42   23   24 ar
  43   23   29 1
  44   24   25 ar
  45   24   45 1
  46   25   26 ar
  47   25   46 1
  48   26   27 ar
  49   26   28 1
  50   27   47 1

#	End of record

