#	Name: ASD01180098
#	Creating user name:	WinNT
#	Creation time:	15. 06. 2019 19:06

#	Modifying user name:	WinNT
#	Modification time:	15. 06. 2019 19:06

#	Program:	/corina/corina34_cracker 3.40 0067  02.08.2006

@<TRIPOS>MOLECULE
ASD01180098
  57   59    0    0    0
SMALL
NO_CHARGES


@<TRIPOS>ATOM
   1 C1             0.9944     1.6847     1.1949 C.2     
   2 C2             0.8458     0.1923     1.0470 C.3     
   3 C3             2.2249    -0.4405     0.8504 C.3     
   4 O4             2.0909     2.1902     1.1479 O.2     
   5 O5            -0.0917     2.4529     1.3734 O.3     
   6 N6             2.0804    -1.8913     0.7065 N.am    
   7 C7             3.1705    -2.6620     0.5218 C.2     
   8 C8             3.0247    -4.1261     0.3767 C.ar    
   9 C9             4.1515    -4.9271     0.1852 C.ar    
  10 C10            4.0086    -6.2927     0.0510 C.ar    
  11 C11            2.7516    -6.8684     0.1053 C.ar    
  12 C12            1.6305    -6.0801     0.2948 C.ar    
  13 C13            1.7601    -4.7139     0.4363 C.ar    
  14 O14            4.2735    -2.1534     0.4745 O.2     
  15 C15            2.6030    -8.3607    -0.0431 C.3     
  16 C16            2.4353    -8.9964     1.3384 C.3     
  17 C17            2.3962   -10.5194     1.1977 C.3     
  18 C18            3.7516   -11.0201     0.6947 C.3     
  19 C19            2.0926   -11.1497     2.5584 C.3     
  20 N20            1.4247    -8.6550    -0.8624 N.pl3   
  21 N21            0.4156    -8.7558    -2.9633 N.ar    
  22 C22            1.5062    -8.5841    -2.2452 C.ar    
  23 C23            2.7480    -8.3307    -2.8460 C.ar    
  24 C24            2.8432    -8.2579    -4.2028 C.ar    
  25 C25            1.6717    -8.4427    -4.9658 C.ar    
  26 C26            1.6984    -8.3811    -6.3674 C.ar    
  27 C27            0.5472    -8.5650    -7.0725 C.ar    
  28 C28           -0.6576    -8.8137    -6.4206 C.ar    
  29 C29           -0.7197    -8.8796    -5.0609 C.ar    
  30 C30            0.4480    -8.6954    -4.2996 C.ar    
  31 Cl31          -2.2344    -9.1905    -4.2717 Cl      
  32 H32            0.3826    -0.2174     1.9446 H       
  33 H33            0.2191    -0.0265     0.1825 H       
  34 H34            2.6880    -0.0308    -0.0472 H       
  35 H35            2.8516    -0.2217     1.7149 H       
  36 H36            0.0537     3.4046     1.4633 H       
  37 H37            1.2002    -2.2971     0.7443 H       
  38 H38            5.1332    -4.4789     0.1420 H       
  39 H39            4.8797    -6.9137    -0.0972 H       
  40 H40            0.6522    -6.5356     0.3363 H       
  41 H41            0.8846    -4.1001     0.5886 H       
  42 H42            3.4916    -8.7682    -0.5251 H       
  43 H43            3.2740    -8.7117     1.9737 H       
  44 H44            1.5049    -8.6491     1.7877 H       
  45 H45            1.6189   -10.7987     0.4863 H       
  46 H46            3.7029   -12.0964     0.5297 H       
  47 H47            3.9990   -10.5198    -0.2416 H       
  48 H48            4.5185   -10.8007     1.4376 H       
  49 H49            1.1270   -10.7931     2.9167 H       
  50 H50            2.0648   -12.2348     2.4581 H       
  51 H51            2.8699   -10.8704     3.2697 H       
  52 H52            0.5875    -8.8994    -0.4378 H       
  53 H53            3.6271    -8.1933    -2.2338 H       
  54 H54            3.7913    -8.0633    -4.6818 H       
  55 H55            2.6267    -8.1885    -6.8846 H       
  56 H56            0.5695    -8.5169    -8.1512 H       
  57 H57           -1.5569    -8.9562    -7.0014 H       
@<TRIPOS>BOND
   1    1    2 1
   2    1    4 2
   3    1    5 1
   4    2    3 1
   5    2   32 1
   6    2   33 1
   7    3    6 1
   8    3   34 1
   9    3   35 1
  10    5   36 1
  11    6    7 am
  12    6   37 1
  13    7    8 1
  14    7   14 2
  15    8    9 ar
  16    8   13 ar
  17    9   10 ar
  18    9   38 1
  19   10   11 ar
  20   10   39 1
  21   11   12 ar
  22   11   15 1
  23   12   13 ar
  24   12   40 1
  25   13   41 1
  26   15   16 1
  27   15   20 1
  28   15   42 1
  29   16   17 1
  30   16   43 1
  31   16   44 1
  32   17   18 1
  33   17   19 1
  34   17   45 1
  35   18   46 1
  36   18   47 1
  37   18   48 1
  38   19   49 1
  39   19   50 1
  40   19   51 1
  41   20   22 1
  42   20   52 1
  43   21   22 ar
  44   21   30 ar
  45   22   23 ar
  46   23   24 ar
  47   23   53 1
  48   24   25 ar
  49   24   54 1
  50   25   26 ar
  51   25   30 ar
  52   26   27 ar
  53   26   55 1
  54   27   28 ar
  55   27   56 1
  56   28   29 ar
  57   28   57 1
  58   29   30 ar
  59   29   31 1

#	End of record

