#	Name: ASD03910123
#	Creating user name:	WinNT
#	Creation time:	15. 06. 2019 20:47

#	Modifying user name:	WinNT
#	Modification time:	15. 06. 2019 20:47

#	Program:	/corina/corina34_cracker 3.40 0067  02.08.2006

@<TRIPOS>MOLECULE
ASD03910123
  44   46    0    0    0
SMALL
NO_CHARGES


@<TRIPOS>ATOM
   1 C1             0.0342     1.4624     0.0478 C.ar    
   2 C2            -0.0672     0.0833     0.0638 C.ar    
   3 N3             1.0088    -0.6749     0.0122 N.ar    
   4 C4             2.2270    -0.1503    -0.0568 C.ar    
   5 C5             2.4022     1.2333    -0.0763 C.ar    
   6 C6             1.2883     2.0526    -0.0236 C.ar    
   7 C7             3.4070    -1.0402    -0.1129 C.2     
   8 N8             3.6530    -1.9979    -1.0517 N.pl3   
   9 N9             4.8745    -2.6043    -0.7319 N.2     
  10 C10            5.3475    -2.0406     0.3507 C.2     
  11 C11            4.4557    -1.0510     0.7633 C.2     
  12 C12            2.7940    -2.3325    -2.1904 C.3     
  13 C13            3.5230    -2.0005    -3.4940 C.3     
  14 C14            2.4623    -3.8257    -2.1575 C.3     
  15 C15            3.7849     1.8276    -0.1536 C.3     
  16 O16            3.6865     3.2464    -0.2924 O.3     
  17 C17            4.8438     3.9285    -0.4779 C.ar    
  18 C18            4.8152     5.3105    -0.7353 C.ar    
  19 C19            6.0589     3.2681    -0.4089 C.ar    
  20 C20            7.2408     3.9613    -0.5967 C.ar    
  21 C21            7.2256     5.3193    -0.8556 C.ar    
  22 C22            6.0234     6.0036    -0.9249 C.ar    
  23 C23            3.5373     6.0219    -0.8059 C.2     
  24 O24            3.5184     7.2146    -1.0283 O.2     
  25 O25            6.0119     7.3365    -1.1740 O.3     
  26 H26           -0.8548     2.0745     0.0861 H       
  27 H27           -1.0419    -0.3785     0.1197 H       
  28 H28            1.3924     3.1275    -0.0378 H       
  29 H29            6.2757    -2.2962     0.8402 H       
  30 H30            4.5719    -0.4089     1.6239 H       
  31 H31            1.8720    -1.7541    -2.1323 H       
  32 H32            3.8369    -0.9568    -3.4791 H       
  33 H33            4.3986    -2.6419    -3.5941 H       
  34 H34            2.8527    -2.1663    -4.3374 H       
  35 H35            1.9430    -4.0622    -1.2288 H       
  36 H36            1.8232    -4.0746    -3.0047 H       
  37 H37            3.3843    -4.4041    -2.2156 H       
  38 H38            4.3344     1.5888     0.7570 H       
  39 H39            4.3106     1.4139    -1.0142 H       
  40 H40            6.0837     2.2074    -0.2072 H       
  41 H41            8.1835     3.4374    -0.5402 H       
  42 H42            8.1553     5.8496    -1.0001 H       
  43 H43            2.6117     5.4850    -0.6599 H       
  44 H44            6.0514     7.8856    -0.3790 H       
@<TRIPOS>BOND
   1    1    2 ar
   2    1    6 ar
   3    1   26 1
   4    2    3 ar
   5    2   27 1
   6    3    4 ar
   7    4    5 ar
   8    4    7 1
   9    5    6 ar
  10    5   15 1
  11    6   28 1
  12    7    8 1
  13    7   11 2
  14    8    9 1
  15    8   12 1
  16    9   10 2
  17   10   11 1
  18   10   29 1
  19   11   30 1
  20   12   13 1
  21   12   14 1
  22   12   31 1
  23   13   32 1
  24   13   33 1
  25   13   34 1
  26   14   35 1
  27   14   36 1
  28   14   37 1
  29   15   16 1
  30   15   38 1
  31   15   39 1
  32   16   17 1
  33   17   19 ar
  34   17   18 ar
  35   18   22 ar
  36   18   23 1
  37   19   20 ar
  38   19   40 1
  39   20   21 ar
  40   20   41 1
  41   21   22 ar
  42   21   42 1
  43   22   25 1
  44   23   24 2
  45   23   43 1
  46   25   44 1

#	End of record

