#	Name: ASD01914080
#	Creating user name:	WinNT
#	Creation time:	15. 06. 2019 20:02

#	Modifying user name:	WinNT
#	Modification time:	15. 06. 2019 20:02

#	Program:	/corina/corina34_cracker 3.40 0067  02.08.2006

@<TRIPOS>MOLECULE
ASD01914080
  49   52    0    0    0
SMALL
NO_CHARGES


@<TRIPOS>ATOM
   1 C1            -0.9867    -0.1742    -0.7540 C.ar    
   2 C2            -0.7723    -1.5379    -0.6760 C.ar    
   3 C3             1.5947    -1.1613    -0.6319 C.ar    
   4 C4             1.3769     0.2065    -0.7111 C.ar    
   5 O5             2.8628    -1.6463    -0.5731 O.3     
   6 C6             3.0117    -3.0653    -0.4930 C.3     
   7 C7             4.4766    -3.4143    -0.4364 C.ar    
   8 N8             4.8395    -4.6803    -0.3590 N.ar    
   9 C9             6.1055    -5.0391    -0.3070 C.ar    
  10 C10            7.1168    -4.0782    -0.3320 C.ar    
  11 C11            6.7630    -2.7259    -0.4139 C.ar    
  12 C12            5.4191    -2.4021    -0.4721 C.ar    
  13 C13            8.5381    -4.4811    -0.2727 C.2     
  14 N14            8.8659    -5.7860    -0.1936 N.am    
  15 O15            9.4109    -3.6355    -0.2952 O.2     
  16 C16            0.5158    -2.0333    -0.6147 C.ar    
  17 C17           10.2726    -6.1921    -0.2417 C.3     
  18 C18            0.0868     0.6970    -0.7712 C.ar    
  19 C19           10.9207    -5.9005    -1.5707 C.ar    
  20 C20           11.0951    -5.7081     0.9641 C.3     
  21 C21           10.6870    -7.0137     1.6667 C.3     
  22 C22           10.5180    -7.6240     0.2624 C.3     
  23 C23           10.1376    -5.6248    -2.6759 C.ar    
  24 C24           10.7321    -5.3574    -3.8949 C.ar    
  25 C25           12.1097    -5.3654    -4.0086 C.ar    
  26 C26           12.8929    -5.6402    -2.9031 C.ar    
  27 C27           12.2985    -5.9033    -1.6831 C.ar    
  28 H28           -1.9944     0.2109    -0.8059 H       
  29 H29           -1.6125    -2.2163    -0.6626 H       
  30 H30            2.2151     0.8873    -0.7253 H       
  31 H31            2.5157    -3.4325     0.4055 H       
  32 H32            2.5616    -3.5280    -1.3713 H       
  33 H33            6.3632    -6.0860    -0.2440 H       
  34 H34            7.5198    -1.9557    -0.4353 H       
  35 H35            5.1089    -1.3696    -0.5358 H       
  36 H36            8.1703    -6.4563    -0.1049 H       
  37 H37            0.6828    -3.0986    -0.5531 H       
  38 H38           -0.0833     1.7617    -0.8328 H       
  39 H39           12.1640    -5.6361     0.7630 H       
  40 H40           10.6912    -4.8130     1.4372 H       
  41 H41           11.4910    -7.4674     2.2462 H       
  42 H42            9.7536    -6.9362     2.2242 H       
  43 H43            9.6485    -8.2749     0.1709 H       
  44 H44           11.4292    -8.0756    -0.1300 H       
  45 H45            9.0613    -5.6186    -2.5871 H       
  46 H46           10.1202    -5.1426    -4.7585 H       
  47 H47           12.5742    -5.1572    -4.9611 H       
  48 H48           13.9692    -5.6468    -2.9920 H       
  49 H49           12.9104    -6.1181    -0.8195 H       
@<TRIPOS>BOND
   1    1    2 ar
   2    1   18 ar
   3    1   28 1
   4    2   16 ar
   5    2   29 1
   6    3    4 ar
   7    3    5 1
   8    3   16 ar
   9    4   18 ar
  10    4   30 1
  11    5    6 1
  12    6    7 1
  13    6   31 1
  14    6   32 1
  15    7    8 ar
  16    7   12 ar
  17    8    9 ar
  18    9   10 ar
  19    9   33 1
  20   10   11 ar
  21   10   13 1
  22   11   12 ar
  23   11   34 1
  24   12   35 1
  25   13   14 am
  26   13   15 2
  27   14   17 1
  28   14   36 1
  29   16   37 1
  30   17   19 1
  31   17   20 1
  32   17   22 1
  33   18   38 1
  34   19   23 ar
  35   19   27 ar
  36   20   21 1
  37   20   39 1
  38   20   40 1
  39   21   22 1
  40   21   41 1
  41   21   42 1
  42   22   43 1
  43   22   44 1
  44   23   24 ar
  45   23   45 1
  46   24   25 ar
  47   24   46 1
  48   25   26 ar
  49   25   47 1
  50   26   27 ar
  51   26   48 1
  52   27   49 1

#	End of record

