#	Name: ASD03430483
#	Creating user name:	WinNT
#	Creation time:	15. 06. 2019 20:41

#	Modifying user name:	WinNT
#	Modification time:	15. 06. 2019 20:41

#	Program:	/corina/corina34_cracker 3.40 0067  02.08.2006

@<TRIPOS>MOLECULE
ASD03430483
  24   25    0    0    0
SMALL
NO_CHARGES


@<TRIPOS>ATOM
   1 O1            -0.0162     1.3453     0.0094 O.3     
   2 C2             0.0021    -0.0041     0.0020 C.2     
   3 C3             1.2874    -0.4450    -0.0127 C.2     
   4 C4             2.1265     0.7525    -0.0142 C.ar    
   5 C5             1.2364     1.8421     0.0001 C.ar    
   6 C6             3.5060     0.9747    -0.0263 C.ar    
   7 C7             3.9868     2.2536    -0.0239 C.ar    
   8 C8             3.1148     3.3334    -0.0098 C.ar    
   9 C9             1.7489     3.1362     0.0026 C.ar    
  10 C10           -1.1868    -0.8654     0.0092 C.2     
  11 O11           -1.0614    -2.0747     0.0019 O.2     
  12 O12           -2.4180    -0.3152     0.0239 O.3     
  13 F13            0.9115     4.1964     0.0159 F       
  14 C14           -3.5476    -1.2275     0.0303 C.3     
  15 C15           -4.8506    -0.4256     0.0469 C.3     
  16 H16            1.6215    -1.4720    -0.0208 H       
  17 H17            4.1896     0.1387    -0.0370 H       
  18 H18            5.0530     2.4256    -0.0329 H       
  19 H19            3.5094     4.3387    -0.0078 H       
  20 H20           -3.5161    -1.8510    -0.8632 H       
  21 H21           -3.4989    -1.8600     0.9166 H       
  22 H22           -4.8821     0.1979     0.9404 H       
  23 H23           -4.8993     0.2068    -0.8395 H       
  24 H24           -5.6986    -1.1104     0.0517 H       
@<TRIPOS>BOND
   1    1    2 1
   2    1    5 1
   3    2    3 2
   4    2   10 1
   5    3    4 1
   6    3   16 1
   7    4    5 ar
   8    4    6 ar
   9    5    9 ar
  10    6    7 ar
  11    6   17 1
  12    7    8 ar
  13    7   18 1
  14    8    9 ar
  15    8   19 1
  16    9   13 1
  17   10   11 2
  18   10   12 1
  19   12   14 1
  20   14   15 1
  21   14   20 1
  22   14   21 1
  23   15   22 1
  24   15   23 1
  25   15   24 1

#	End of record

