#	Name: ASD01884186
#	Creating user name:	WinNT
#	Creation time:	15. 06. 2019 19:47

#	Modifying user name:	WinNT
#	Modification time:	15. 06. 2019 19:47

#	Program:	/corina/corina34_cracker 3.40 0067  02.08.2006

@<TRIPOS>MOLECULE
ASD01884186
  40   44    0    0    0
SMALL
NO_CHARGES


@<TRIPOS>ATOM
   1 C1            -0.0180     1.4793     0.0102 C.ar    
   2 C2             0.0021    -0.0041     0.0020 C.ar    
   3 C3            -1.1914    -0.7265     0.0095 C.ar    
   4 C4            -1.1798    -2.0993     0.0020 C.ar    
   5 C5             0.0309    -2.8106    -0.0138 C.ar    
   6 C6             1.2174    -2.0737    -0.0217 C.ar    
   7 C7             1.2128    -0.6926    -0.0191 C.ar    
   8 N8             0.2095    -4.1822    -0.0230 N.am    
   9 C9             1.4548    -4.6667    -0.0380 C.2     
  10 S10            2.5304    -3.2593    -0.0411 S.3     
  11 C11           -0.9436    -5.0858    -0.0159 C.3     
  12 C12           -1.3600    -5.3927    -1.4558 C.3     
  13 C13           -2.4779    -6.4161    -1.6652 C.3     
  14 O14            1.7836    -5.8386    -0.0469 O.2     
  15 C15           -2.7474    -4.9291    -1.9041 C.3     
  16 F16           -3.5383    -4.2570    -0.9660 F       
  17 F17           -2.8893    -4.5031    -3.2291 F       
  18 C18            1.1762     2.1975     0.0026 C.ar    
  19 C19            1.1571     3.5746     0.0136 C.ar    
  20 C20           -0.0546     4.2630     0.0325 C.ar    
  21 C21           -1.2424     3.5402     0.0320 C.ar    
  22 C22           -1.2326     2.1654     0.0196 C.ar    
  23 O23           -0.2945     5.6030     0.0632 O.3     
  24 C24           -1.6437     5.8521    -0.3661 C.3     
  25 C25           -2.3757     4.5482     0.0300 C.3     
  26 H26           -2.1344    -0.2002     0.0217 H       
  27 H27           -2.1148    -2.6397     0.0088 H       
  28 H28            2.1454    -0.1480    -0.0253 H       
  29 H29           -0.6755    -6.0132     0.4902 H       
  30 H30           -1.7732    -4.6121     0.5090 H       
  31 H31           -0.5575    -5.3661    -2.1930 H       
  32 H32           -2.4111    -7.0624    -2.5403 H       
  33 H33           -2.9168    -6.8707    -0.7770 H       
  34 H34            2.1199     1.6725    -0.0115 H       
  35 H35            2.0867     4.1244     0.0080 H       
  36 H36           -2.1633     1.6177     0.0256 H       
  37 H37           -2.0653     6.7073     0.1620 H       
  38 H38           -1.6837     6.0050    -1.4446 H       
  39 H39           -3.1302     4.2845    -0.7112 H       
  40 H40           -2.8200     4.6367     1.0214 H       
@<TRIPOS>BOND
   1    1    2 1
   2    1   18 ar
   3    1   22 ar
   4    2    3 ar
   5    2    7 ar
   6    3    4 ar
   7    3   26 1
   8    4    5 ar
   9    4   27 1
  10    5    6 ar
  11    5    8 1
  12    6    7 ar
  13    6   10 1
  14    7   28 1
  15    8    9 am
  16    8   11 1
  17    9   10 1
  18    9   14 2
  19   11   12 1
  20   11   29 1
  21   11   30 1
  22   12   13 1
  23   12   15 1
  24   12   31 1
  25   13   15 1
  26   13   32 1
  27   13   33 1
  28   15   16 1
  29   15   17 1
  30   18   19 ar
  31   18   34 1
  32   19   20 ar
  33   19   35 1
  34   20   21 ar
  35   20   23 1
  36   21   22 ar
  37   21   25 1
  38   22   36 1
  39   23   24 1
  40   24   25 1
  41   24   37 1
  42   24   38 1
  43   25   39 1
  44   25   40 1

#	End of record

