#	Name: ASD01916781
#	Creating user name:	WinNT
#	Creation time:	15. 06. 2019 20:08

#	Modifying user name:	WinNT
#	Modification time:	15. 06. 2019 20:08

#	Program:	/corina/corina34_cracker 3.40 0067  02.08.2006

@<TRIPOS>MOLECULE
ASD01916781
  59   63    0    0    0
SMALL
NO_CHARGES


@<TRIPOS>ATOM
   1 C1            -0.0180     1.3099     0.0944 C.2     
   2 N2             0.0013     0.0209    -0.1687 N.2     
   3 N3            -1.3340    -0.4136    -0.1806 N.pl3   
   4 C4            -2.0929     0.6752     0.0842 C.2     
   5 N5            -1.2869     1.7019     0.2527 N.2     
   6 C6             1.1752     2.1856     0.2041 C.ar    
   7 C7             1.0229     3.5412     0.4884 C.ar    
   8 C8             2.4506     1.6532     0.0287 C.ar    
   9 C9             3.5587     2.4725     0.1317 C.ar    
  10 C10            3.4010     3.8226     0.4098 C.ar    
  11 C11           -1.8111    -1.7759    -0.4307 C.3     
  12 C12           -1.8474    -2.5416     0.8668 C.2     
  13 N13           -2.2569    -3.8255     0.8804 N.am    
  14 O14           -1.5080    -2.0024     1.8988 O.2     
  15 C15           -2.2998    -4.5910     2.1356 C.3     
  16 C16           -3.6862    -5.2302     2.2688 C.3     
  17 N17           -3.9823    -6.0065     1.0573 N.3     
  18 C18           -4.0443    -5.1413    -0.1282 C.3     
  19 C19           -2.6784    -4.4966    -0.3586 C.3     
  20 C20           -5.1549    -6.7307     1.2057 C.ar    
  21 N21           -5.8513    -6.6642     2.3385 N.ar    
  22 C22           -6.9667    -7.3492     2.4865 C.ar    
  23 N23           -7.4399    -8.1238     1.5313 N.ar    
  24 C24           -6.8025    -8.2436     0.3701 C.ar    
  25 C25           -5.6251    -7.5339     0.1701 C.ar    
  26 C26           -3.5697     0.7048     0.1748 C.ar    
  27 C27           -4.2559     1.9114     0.0365 C.ar    
  28 C28           -5.6329     1.9324     0.1215 C.ar    
  29 C29           -6.3330     0.7600     0.3433 C.ar    
  30 C30           -5.6583    -0.4398     0.4817 C.ar    
  31 C31           -4.2818    -0.4748     0.3930 C.ar    
  32 C32            2.1342     4.3529     0.5897 C.ar    
  33 O33           -7.2974    -9.0430    -0.6063 O.3     
  34 C34           -8.5157    -9.7341    -0.3235 C.3     
  35 F35            4.4862     4.6210     0.5103 F       
  36 F36            4.7964     1.9584    -0.0380 F       
  37 H37            0.0359     3.9564     0.6290 H       
  38 H38            2.5731     0.6021    -0.1870 H       
  39 H39           -2.8132    -1.7372    -0.8578 H       
  40 H40           -1.1379    -2.2744    -1.1280 H       
  41 H41           -1.5378    -5.3701     2.1157 H       
  42 H42           -2.1223    -3.9227     2.9783 H       
  43 H43           -3.7007    -5.8900     3.1362 H       
  44 H44           -4.4364    -4.4492     2.3927 H       
  45 H45           -4.3185    -5.7367    -0.9991 H       
  46 H46           -4.7895    -4.3616     0.0291 H       
  47 H47           -2.7491    -3.7676    -1.1659 H       
  48 H48           -1.9500    -5.2648    -0.6180 H       
  49 H49           -7.5087    -7.2740     3.4176 H       
  50 H50           -5.0840    -7.6098    -0.7615 H       
  51 H51           -3.7104     2.8274    -0.1363 H       
  52 H52           -6.1652     2.8660     0.0150 H       
  53 H53           -7.4108     0.7815     0.4090 H       
  54 H54           -6.2105    -1.3517     0.6551 H       
  55 H55           -3.7562    -1.4121     0.5008 H       
  56 H56            2.0158     5.4044     0.8056 H       
  57 H57           -9.3027    -9.0108    -0.1102 H       
  58 H58           -8.8002   -10.3368    -1.1861 H       
  59 H59           -8.3736   -10.3821     0.5414 H       
@<TRIPOS>BOND
   1    1    2 2
   2    1    6 1
   3    1    5 1
   4    2    3 1
   5    3    4 1
   6    3   11 1
   7    4    5 2
   8    4   26 1
   9    6    7 ar
  10    6    8 ar
  11    7   32 ar
  12    7   37 1
  13    8    9 ar
  14    8   38 1
  15    9   10 ar
  16    9   36 1
  17   10   32 ar
  18   10   35 1
  19   11   12 1
  20   11   39 1
  21   11   40 1
  22   12   13 am
  23   12   14 2
  24   13   15 1
  25   13   19 1
  26   15   16 1
  27   15   41 1
  28   15   42 1
  29   16   17 1
  30   16   43 1
  31   16   44 1
  32   17   18 1
  33   17   20 1
  34   18   19 1
  35   18   45 1
  36   18   46 1
  37   19   47 1
  38   19   48 1
  39   20   21 ar
  40   20   25 ar
  41   21   22 ar
  42   22   23 ar
  43   22   49 1
  44   23   24 ar
  45   24   25 ar
  46   24   33 1
  47   25   50 1
  48   26   27 ar
  49   26   31 ar
  50   27   28 ar
  51   27   51 1
  52   28   29 ar
  53   28   52 1
  54   29   30 ar
  55   29   53 1
  56   30   31 ar
  57   30   54 1
  58   31   55 1
  59   32   56 1
  60   33   34 1
  61   34   57 1
  62   34   58 1
  63   34   59 1

#	End of record

