#	Name: ASD05430125
#	Creating user name:	WinNT
#	Creation time:	15. 06. 2019 20:59

#	Modifying user name:	WinNT
#	Modification time:	15. 06. 2019 20:59

#	Program:	/corina/corina34_cracker 3.40 0067  02.08.2006

@<TRIPOS>MOLECULE
ASD05430125
  67   73    0    0    0
SMALL
NO_CHARGES


@<TRIPOS>ATOM
   1 F1            13.1246     0.3692    -1.7213 F       
   2 C2             0.0217     1.5081     0.0188 C.ar    
   3 C3            -0.0208     0.3486    -0.7582 C.ar    
   4 C4             1.1387    -0.1468    -1.3346 C.ar    
   5 C5             2.3482     0.4952    -1.1512 C.ar    
   6 C6             2.4179     1.6550    -0.3797 C.ar    
   7 C7             1.2426     2.1676     0.2116 C.ar    
   8 C8             4.8504     0.1016    -0.0468 C.3     
   9 C9             4.8429     1.6209    -0.1116 C.2     
  10 C10            3.7036     2.3375    -0.1836 C.2     
  11 C11            5.8635    -0.3347     1.0163 C.3     
  12 C12            7.2793     0.0929     0.6167 C.3     
  13 N13            7.2947     1.5258     0.3397 N.pl3   
  14 C14            6.1803     2.2533    -0.0891 C.2     
  15 C15            9.6602     1.9201    -0.1281 C.ar    
  16 C16           10.0768     0.6511     0.2285 C.ar    
  17 C17           11.2396     0.1293    -0.3059 C.ar    
  18 C18           11.9875     0.8781    -1.1986 C.ar    
  19 C19           11.5693     2.1490    -1.5550 C.ar    
  20 C20           10.4034     2.6666    -1.0234 C.ar    
  21 N21           -1.2379    -0.3160    -0.9552 N.pl3   
  22 C22           -1.7600    -0.7213    -2.1564 C.2     
  23 C23           -2.9385    -1.3155    -1.8888 C.2     
  24 N24           -3.1355    -1.2769    -0.5626 N.2     
  25 C25           -2.1212    -0.6861     0.0082 C.2     
  26 C26           -3.8745    -1.9190    -2.9041 C.3     
  27 N27            6.5238     3.4438    -0.4461 N.2     
  28 C28            8.3918     2.4878     0.4549 C.3     
  29 O29            7.9304     3.6104    -0.3257 O.3     
  30 C30            8.6044     2.8919     1.9152 C.3     
  31 O31            9.6793     3.8299     1.9981 O.3     
  32 C32            0.9606     3.3276     1.0563 C.2     
  33 N33           -0.3120     3.3202     1.3153 N.2     
  34 O34           -0.9185     2.2104     0.6837 O.3     
  35 C35            5.4987     0.3063     2.3583 C.3     
  36 C36            4.1215    -0.1967     2.7989 C.3     
  37 O37            4.1414    -1.6230     2.8844 O.3     
  38 C38            4.4286    -2.2775     1.6469 C.3     
  39 C39            5.8188    -1.8590     1.1614 C.3     
  40 H40            1.0961    -1.0447    -1.9332 H       
  41 H41            3.2430     0.0973    -1.6066 H       
  42 H42            3.8577    -0.2583     0.2237 H       
  43 H43            5.1388    -0.3049    -1.0162 H       
  44 H44            3.7362     3.4135    -0.0971 H       
  45 H45            7.9690    -0.1270     1.4317 H       
  46 H46            7.5855    -0.4530    -0.2757 H       
  47 H47            9.4934     0.0673     0.9251 H       
  48 H48           11.5650    -0.8620    -0.0269 H       
  49 H49           12.1519     2.7340    -2.2513 H       
  50 H50           10.0770     3.6579    -1.3013 H       
  51 H51           -1.3123    -0.5891    -3.1303 H       
  52 H52           -2.0071    -0.5133     1.0682 H       
  53 H53           -3.6221    -2.9690    -3.0519 H       
  54 H54           -4.9006    -1.8390    -2.5450 H       
  55 H55           -3.7779    -1.3855    -3.8496 H       
  56 H56            7.6934     3.3481     2.3023 H       
  57 H57            8.8472     2.0080     2.5051 H       
  58 H58            9.8704     4.1305     2.8971 H       
  59 H59            1.6789     4.0565     1.4015 H       
  60 H60            6.2427     0.0330     3.1065 H       
  61 H61            5.4725     1.3905     2.2487 H       
  62 H62            3.8767     0.2226     3.7748 H       
  63 H63            3.3715     0.1134     2.0714 H       
  64 H64            4.4041    -3.3574     1.7926 H       
  65 H65            3.6833    -1.9936     0.9039 H       
  66 H66            6.0224    -2.3228     0.1963 H       
  67 H67            6.5687    -2.1781     1.8853 H       
@<TRIPOS>BOND
   1    1   18 1
   2    2    3 ar
   3    2    7 ar
   4    2   34 1
   5    3    4 ar
   6    3   21 1
   7    4    5 ar
   8    4   40 1
   9    5    6 ar
  10    5   41 1
  11    6    7 ar
  12    6   10 1
  13    7   32 1
  14    8    9 1
  15    8   11 1
  16    8   42 1
  17    8   43 1
  18    9   10 2
  19    9   14 1
  20   10   44 1
  21   11   12 1
  22   11   35 1
  23   11   39 1
  24   12   13 1
  25   12   45 1
  26   12   46 1
  27   13   14 1
  28   13   28 1
  29   14   27 2
  30   15   16 ar
  31   15   28 1
  32   15   20 ar
  33   16   17 ar
  34   16   47 1
  35   17   18 ar
  36   17   48 1
  37   18   19 ar
  38   19   20 ar
  39   19   49 1
  40   20   50 1
  41   21   22 1
  42   21   25 1
  43   22   23 2
  44   22   51 1
  45   23   24 1
  46   23   26 1
  47   24   25 2
  48   25   52 1
  49   26   53 1
  50   26   54 1
  51   26   55 1
  52   27   29 1
  53   28   29 1
  54   28   30 1
  55   30   31 1
  56   30   56 1
  57   30   57 1
  58   31   58 1
  59   32   33 2
  60   32   59 1
  61   33   34 1
  62   35   36 1
  63   35   60 1
  64   35   61 1
  65   36   37 1
  66   36   62 1
  67   36   63 1
  68   37   38 1
  69   38   39 1
  70   38   64 1
  71   38   65 1
  72   39   66 1
  73   39   67 1

#	End of record

