#	Name: ASD07931725
#	Creating user name:	WinNT
#	Creation time:	15. 06. 2019 21:13

#	Modifying user name:	WinNT
#	Modification time:	15. 06. 2019 21:13

#	Program:	/corina/corina34_cracker 3.40 0067  02.08.2006

@<TRIPOS>MOLECULE
ASD07931725
  64   68    0    0    0
SMALL
NO_CHARGES


@<TRIPOS>ATOM
   1 C1             1.9494    -2.1218    -1.0180 C.2     
   2 C2             0.8504    -1.3288    -1.2047 C.2     
   3 C3             1.0351     0.1204    -1.3138 C.2     
   4 N4             2.2747     0.6339    -1.2300 N.am    
   5 C5             3.3647    -0.1850    -1.0398 C.2     
   6 C6             3.2177    -1.5339    -0.9355 C.2     
   7 C7             2.4961     2.0820    -1.3415 C.3     
   8 C8             3.5644     2.4808    -0.3125 C.3     
   9 N9             4.7983     1.7395    -0.6099 N.am    
  10 C10            4.7068     0.4313    -0.9487 C.2     
  11 C11            6.1025     2.4032    -0.5412 C.3     
  12 O12            0.0747     0.8531    -1.4792 O.2     
  13 N13           -0.4263    -1.8914    -1.2904 N.pl3   
  14 C14           -1.0927    -2.5567    -0.2934 C.2     
  15 C15           -1.2442    -1.8775    -2.3756 C.2     
  16 N16           -2.3490    -2.5020    -2.0711 N.2     
  17 C17           -2.2830    -2.9287    -0.8009 C.2     
  18 C18           -3.3560    -3.6926    -0.0686 C.3     
  19 O19            5.7067    -0.2231    -1.1730 O.2     
  20 C20            6.3895     2.8156     0.9039 C.3     
  21 C21            6.2705     1.5961     1.8448 C.3     
  22 C22            5.6354     2.1737     3.1295 C.3     
  23 C23            5.4458     3.6737     2.8128 C.3     
  24 O24            5.3847     3.7417     1.3714 O.3     
  25 C25            4.1609     4.1791     3.4167 C.ar    
  26 C26            3.0140     4.2425     2.6489 C.ar    
  27 C27            4.1272     4.5756     4.7455 C.ar    
  28 C28            2.9426     5.0404     5.2986 C.ar    
  29 C29            1.8002     5.1072     4.5252 C.ar    
  30 C30            1.8350     4.7060     3.2023 C.ar    
  31 C31            6.0899     3.6462    -1.4333 C.3     
  32 O32            5.2525     4.5084     5.5046 O.3     
  33 C33            5.1440     4.9333     6.8646 C.3     
  34 C34            0.5133     5.6120     5.1253 C.3     
  35 F35            0.4299     6.9977     4.9520 F       
  36 F36           -0.5705     4.9966     4.4897 F       
  37 F37            0.4857     5.3103     6.4910 F       
  38 H38            1.8392    -3.1925    -0.9303 H       
  39 H39            4.0874    -2.1569    -0.7875 H       
  40 H40            2.8431     2.3253    -2.3457 H       
  41 H41            1.5676     2.6136    -1.1332 H       
  42 H42            3.7555     3.5518    -0.3793 H       
  43 H43            3.2189     2.2293     0.6903 H       
  44 H44            6.8775     1.7178    -0.8842 H       
  45 H45           -0.7320    -2.7458     0.7069 H       
  46 H46           -1.0181    -1.4252    -3.3299 H       
  47 H47           -3.2022    -4.7622    -0.2114 H       
  48 H48           -3.3081    -3.4573     0.9946 H       
  49 H49           -4.3337    -3.4108    -0.4595 H       
  50 H50            7.3821     3.2591     0.9813 H       
  51 H51            5.6226     0.8372     1.4063 H       
  52 H52            7.2555     1.1814     2.0589 H       
  53 H53            4.6735     1.7003     3.3261 H       
  54 H54            6.3064     2.0445     3.9787 H       
  55 H55            6.2931     4.2501     3.1843 H       
  56 H56            3.0387     3.9300     1.6153 H       
  57 H57            2.9138     5.3494     6.3331 H       
  58 H58            0.9407     4.7594     2.5990 H       
  59 H59            5.3149     4.3317    -1.0903 H       
  60 H60            7.0603     4.1400    -1.3822 H       
  61 H61            5.8855     3.3524    -2.4629 H       
  62 H62            4.8318     5.9771     6.8954 H       
  63 H63            4.4062     4.3181     7.3797 H       
  64 H64            6.1112     4.8286     7.3562 H       
@<TRIPOS>BOND
   1    1    2 2
   2    1    6 1
   3    1   38 1
   4    2    3 1
   5    2   13 1
   6    3    4 am
   7    3   12 2
   8    4    5 1
   9    4    7 1
  10    5    6 2
  11    5   10 1
  12    6   39 1
  13    7    8 1
  14    7   40 1
  15    7   41 1
  16    8    9 1
  17    8   42 1
  18    8   43 1
  19    9   10 am
  20    9   11 1
  21   10   19 2
  22   11   31 1
  23   11   20 1
  24   11   44 1
  25   13   14 1
  26   13   15 1
  27   14   17 2
  28   14   45 1
  29   15   16 2
  30   15   46 1
  31   16   17 1
  32   17   18 1
  33   18   47 1
  34   18   48 1
  35   18   49 1
  36   20   21 1
  37   20   24 1
  38   20   50 1
  39   21   22 1
  40   21   51 1
  41   21   52 1
  42   22   23 1
  43   22   53 1
  44   22   54 1
  45   23   24 1
  46   23   25 1
  47   23   55 1
  48   25   26 ar
  49   25   27 ar
  50   26   30 ar
  51   26   56 1
  52   27   28 ar
  53   27   32 1
  54   28   29 ar
  55   28   57 1
  56   29   30 ar
  57   29   34 1
  58   30   58 1
  59   31   59 1
  60   31   60 1
  61   31   61 1
  62   32   33 1
  63   33   62 1
  64   33   63 1
  65   33   64 1
  66   34   35 1
  67   34   36 1
  68   34   37 1

#	End of record

