#	Name: ASD01917888
#	Creating user name:	WinNT
#	Creation time:	15. 06. 2019 20:10

#	Modifying user name:	WinNT
#	Modification time:	15. 06. 2019 20:10

#	Program:	/corina/corina34_cracker 3.40 0067  02.08.2006

@<TRIPOS>MOLECULE
ASD01917888
  44   47    0    0    0
SMALL
NO_CHARGES


@<TRIPOS>ATOM
   1 C1             0.0066     1.2807    -0.0874 C.2     
   2 C2            -0.0046    -0.0654    -0.0775 C.2     
   3 C3            -1.2866    -0.8822    -0.0279 C.3     
   4 C4            -2.4268     0.0044     0.4786 C.3     
   5 N5            -2.3948     1.2871    -0.2402 N.am    
   6 C6            -1.2234     2.1579    -0.0394 C.3     
   7 C7            -3.4039     1.6536    -1.0549 C.2     
   8 O8            -4.3093     0.8744    -1.2914 O.2     
   9 S9             1.6753     1.8295    -0.1569 S.3     
  10 C10            2.2159     0.2080    -0.1621 C.2     
  11 N11            1.2109    -0.5940    -0.1168 N.2     
  12 C12            3.6599    -0.2200    -0.2128 C.3     
  13 O13            4.0655    -0.3675    -1.5751 O.3     
  14 C14            5.3498    -0.7518    -1.7983 C.ar    
  15 C15            5.8107    -0.9143    -3.0967 C.ar    
  16 C16            7.1166    -1.3051    -3.3210 C.ar    
  17 C17            7.9640    -1.5341    -2.2528 C.ar    
  18 C18            7.5070    -1.3733    -0.9579 C.ar    
  19 C19            6.2037    -0.9767    -0.7284 C.ar    
  20 C20           -3.4116     2.9862    -1.6546 C.2     
  21 C21           -4.3049     3.4454    -2.5983 C.2     
  22 C22           -3.9423     4.7659    -2.8854 C.2     
  23 C23           -2.8574     5.0606    -2.1184 C.2     
  24 O24           -2.5472     3.9881    -1.3771 O.3     
  25 O25           -2.2022     6.2450    -2.1028 O.3     
  26 C26           -1.0811     6.3547    -1.2235 C.3     
  27 H27           -1.5251    -1.2471    -1.0270 H       
  28 H28           -1.1544    -1.7272     0.6478 H       
  29 H29           -3.3810    -0.4907     0.2983 H       
  30 H30           -2.3032     0.1821     1.5469 H       
  31 H31           -1.2906     2.6514     0.9301 H       
  32 H32           -1.1759     2.9036    -0.8330 H       
  33 H33            4.2798     0.5347     0.2712 H       
  34 H34            3.7752    -1.1719     0.3057 H       
  35 H35            5.1490    -0.7359    -3.9314 H       
  36 H36            7.4757    -1.4321    -4.3316 H       
  37 H37            8.9847    -1.8395    -2.4303 H       
  38 H38            8.1707    -1.5535    -0.1251 H       
  39 H39            5.8472    -0.8512     0.2833 H       
  40 H40           -5.1252     2.8931    -3.0324 H       
  41 H41           -4.4316     5.4274    -3.5850 H       
  42 H42           -0.6486     7.3515    -1.3088 H       
  43 H43           -1.4067     6.1865    -0.1969 H       
  44 H44           -0.3329     5.6096    -1.4940 H       
@<TRIPOS>BOND
   1    1    2 2
   2    1    9 1
   3    1    6 1
   4    2    3 1
   5    2   11 1
   6    3    4 1
   7    3   27 1
   8    3   28 1
   9    4    5 1
  10    4   29 1
  11    4   30 1
  12    5    6 1
  13    5    7 am
  14    6   31 1
  15    6   32 1
  16    7    8 2
  17    7   20 1
  18    9   10 1
  19   10   11 2
  20   10   12 1
  21   12   13 1
  22   12   33 1
  23   12   34 1
  24   13   14 1
  25   14   15 ar
  26   14   19 ar
  27   15   16 ar
  28   15   35 1
  29   16   17 ar
  30   16   36 1
  31   17   18 ar
  32   17   37 1
  33   18   19 ar
  34   18   38 1
  35   19   39 1
  36   20   21 2
  37   20   24 1
  38   21   22 1
  39   21   40 1
  40   22   23 2
  41   22   41 1
  42   23   25 1
  43   23   24 1
  44   25   26 1
  45   26   42 1
  46   26   43 1
  47   26   44 1

#	End of record

