#	Name: ASD01910210
#	Creating user name:	WinNT
#	Creation time:	15. 06. 2019 19:55

#	Modifying user name:	WinNT
#	Modification time:	15. 06. 2019 19:55

#	Program:	/corina/corina34_cracker 3.40 0067  02.08.2006

@<TRIPOS>MOLECULE
ASD01910210
  45   48    0    0    0
SMALL
NO_CHARGES


@<TRIPOS>ATOM
   1 C1             1.0678    -0.4740    -0.6911 C.ar    
   2 C2             0.0001     0.0005     0.0554 C.ar    
   3 C3             0.1215     1.1779     0.7777 C.ar    
   4 C4             1.3055     1.8832     0.7567 C.ar    
   5 C5             2.3841     1.4097     0.0066 C.ar    
   6 C6             2.2565     0.2232    -0.7187 C.ar    
   7 F7            -1.1630    -0.6864     0.0786 F       
   8 C8             3.6554     2.1617    -0.0199 C.2     
   9 N9             3.6413     3.5061    -0.1143 N.am    
  10 O10            4.7143     1.5679     0.0433 O.2     
  11 C11            4.8881     4.2767    -0.0130 C.3     
  12 C12            5.0071     5.1856    -1.2405 C.3     
  13 C13            3.7456     6.0438    -1.3590 C.3     
  14 C14            2.5260     5.1382    -1.5450 C.3     
  15 C15            2.3796     4.2284    -0.3266 C.3     
  16 C16            6.2112     6.0793    -1.0898 C.2     
  17 N17            6.9978     6.4845    -2.0502 N.2     
  18 N18            7.9262     7.2345    -1.5730 N.2     
  19 C19            7.7797     7.3484    -0.2716 C.2     
  20 N20            6.6749     6.6170     0.0716 N.pl3   
  21 C21            8.6413     8.1246     0.6465 C.ar    
  22 C22            9.7368     8.8312     0.1488 C.ar    
  23 C23           10.5368     9.5538     1.0091 C.ar    
  24 C24           10.2543     9.5788     2.3656 C.ar    
  25 C25            9.1678     8.8784     2.8650 C.ar    
  26 C26            8.3581     8.1574     2.0124 C.ar    
  27 F27           11.0410    10.2882     3.2041 F       
  28 H28            0.9694    -1.3939    -1.2483 H       
  29 H29           -0.7133     1.5431     1.3574 H       
  30 H30            1.3988     2.8005     1.3191 H       
  31 H31            3.0878    -0.1475    -1.3001 H       
  32 H32            4.8694     4.8848     0.8914 H       
  33 H33            5.7376     3.5946     0.0203 H       
  34 H34            5.1169     4.5745    -2.1364 H       
  35 H35            3.6230     6.6364    -0.4524 H       
  36 H36            3.8382     6.7090    -2.2175 H       
  37 H37            1.6310     5.7508    -1.6527 H       
  38 H38            2.6592     4.5275    -2.4380 H       
  39 H39            1.5732     3.5153    -0.4978 H       
  40 H40            2.1568     4.8305     0.5543 H       
  41 H41            6.3028     6.5007     0.9598 H       
  42 H42            9.9580     8.8121    -0.9081 H       
  43 H43           11.3851    10.1008     0.6250 H       
  44 H44            8.9522     8.9005     3.9230 H       
  45 H45            7.5114     7.6121     2.4025 H       
@<TRIPOS>BOND
   1    1    2 ar
   2    1    6 ar
   3    1   28 1
   4    2    3 ar
   5    2    7 1
   6    3    4 ar
   7    3   29 1
   8    4    5 ar
   9    4   30 1
  10    5    6 ar
  11    5    8 1
  12    6   31 1
  13    8    9 am
  14    8   10 2
  15    9   11 1
  16    9   15 1
  17   11   12 1
  18   11   32 1
  19   11   33 1
  20   12   13 1
  21   12   16 1
  22   12   34 1
  23   13   14 1
  24   13   35 1
  25   13   36 1
  26   14   15 1
  27   14   37 1
  28   14   38 1
  29   15   39 1
  30   15   40 1
  31   16   17 2
  32   16   20 1
  33   17   18 1
  34   18   19 2
  35   19   20 1
  36   19   21 1
  37   20   41 1
  38   21   22 ar
  39   21   26 ar
  40   22   23 ar
  41   22   42 1
  42   23   24 ar
  43   23   43 1
  44   24   25 ar
  45   24   27 1
  46   25   26 ar
  47   25   44 1
  48   26   45 1

#	End of record

