#	Name: ASD01918457
#	Creating user name:	WinNT
#	Creation time:	15. 06. 2019 20:11

#	Modifying user name:	WinNT
#	Modification time:	15. 06. 2019 20:11

#	Program:	/corina/corina34_cracker 3.40 0067  02.08.2006

@<TRIPOS>MOLECULE
ASD01918457
  36   38    0    0    0
SMALL
NO_CHARGES


@<TRIPOS>ATOM
   1 C1             0.1892     1.5915     0.0455 C.3     
   2 C2            -0.0269     0.0791     0.1278 C.3     
   3 C3             0.3005    -0.5588    -1.2286 C.3     
   4 C4            -0.0217    -2.0361    -1.1263 C.2     
   5 O5            -0.5870    -2.6206    -2.0264 O.2     
   6 C6             0.3766    -2.7343     0.1039 C.ar    
   7 C7             0.3329    -4.1324     0.1777 C.ar    
   8 N8             0.6964    -4.7176     1.3046 N.ar    
   9 C9             1.0942    -3.9971     2.3456 C.ar    
  10 N10            1.4633    -4.6486     3.5041 N.pl3   
  11 C11            1.5257    -6.0453     3.5312 C.ar    
  12 C12            1.9042    -6.7579     2.3962 C.ar    
  13 C13            1.9510    -8.1404     2.4724 C.ar    
  14 C14            1.6233    -8.7625     3.6626 C.ar    
  15 C15            1.6720   -10.2660     3.7529 C.3     
  16 N16            1.2691    -8.0588     4.7202 N.ar    
  17 C17            1.2166    -6.7422     4.6925 C.ar    
  18 N18            1.1497    -2.6717     2.3107 N.ar    
  19 C19            0.8057    -2.0080     1.2210 C.ar    
  20 C20            0.8870    -0.5078     1.2009 C.3     
  21 H21            1.2286     1.7966    -0.2106 H       
  22 H22           -0.4632     2.0106    -0.7206 H       
  23 H23           -0.0439     2.0448     1.0089 H       
  24 H24           -1.0664    -0.1259     0.3841 H       
  25 H25           -0.3066    -0.1006    -2.0094 H       
  26 H26            1.3584    -0.4253    -1.4548 H       
  27 H27            0.0085    -4.7194    -0.6688 H       
  28 H28            1.6796    -4.1379     4.2999 H       
  29 H29            2.1546    -6.2456     1.4790 H       
  30 H30            2.2398    -8.7255     1.6118 H       
  31 H31            2.6664   -10.5789     4.0712 H       
  32 H32            0.9336   -10.6106     4.4769 H       
  33 H33            1.4511   -10.6961     2.7760 H       
  34 H34            0.9261    -6.2000     5.5802 H       
  35 H35            1.9151    -0.2082     0.9977 H       
  36 H36            0.5888    -0.1206     2.1752 H       
@<TRIPOS>BOND
   1    1    2 1
   2    1   21 1
   3    1   22 1
   4    1   23 1
   5    2   20 1
   6    2    3 1
   7    2   24 1
   8    3    4 1
   9    3   25 1
  10    3   26 1
  11    4    5 2
  12    4    6 1
  13    6   19 ar
  14    6    7 ar
  15    7    8 ar
  16    7   27 1
  17    8    9 ar
  18    9   10 1
  19    9   18 ar
  20   10   11 1
  21   10   28 1
  22   11   17 ar
  23   11   12 ar
  24   12   13 ar
  25   12   29 1
  26   13   14 ar
  27   13   30 1
  28   14   15 1
  29   14   16 ar
  30   15   31 1
  31   15   32 1
  32   15   33 1
  33   16   17 ar
  34   17   34 1
  35   18   19 ar
  36   19   20 1
  37   20   35 1
  38   20   36 1

#	End of record

