#	Name: ASD05313047
#	Creating user name:	WinNT
#	Creation time:	15. 06. 2019 20:58

#	Modifying user name:	WinNT
#	Modification time:	15. 06. 2019 20:58

#	Program:	/corina/corina34_cracker 3.40 0067  02.08.2006

@<TRIPOS>MOLECULE
ASD05313047
  40   43    0    0    0
SMALL
NO_CHARGES


@<TRIPOS>ATOM
   1 C1            -0.0722     0.8168     1.0247 C.2     
   2 C2             0.1140    -0.6194     0.5969 C.3     
   3 N3             0.9302     1.7302     1.0510 N.pl3   
   4 N4             1.4571    -0.7186    -0.0051 N.am    
   5 C5             2.5714    -0.0370     0.6709 C.3     
   6 C6             2.3168     1.4751     0.6646 C.3     
   7 N7            -0.9040     2.6396     1.7093 N.2     
   8 N8            -1.1570     1.4076     1.4276 N.2     
   9 C9             0.3718     2.8897     1.4958 C.2     
  10 C10            1.0646     4.1802     1.7029 C.ar    
  11 C11            0.3556     5.2927     2.1676 C.ar    
  12 C12            1.0524     6.4780     2.3445 C.ar    
  13 C13            2.4082     6.4886     2.0502 C.ar    
  14 N14            2.9997     5.3919     1.6151 N.ar    
  15 N15            2.3652     4.2879     1.4536 N.ar    
  16 C16            1.6574    -1.4143    -1.1419 C.2     
  17 O17            2.7490    -1.4035    -1.6767 O.2     
  18 C18            0.5501    -2.1902    -1.7382 C.ar    
  19 C19            0.3186    -2.1383    -3.1152 C.ar    
  20 C20           -0.7183    -2.8663    -3.6650 C.ar    
  21 C21           -1.5260    -3.6445    -2.8556 C.ar    
  22 C22           -1.3019    -3.6994    -1.4912 C.ar    
  23 C23           -0.2658    -2.9828    -0.9292 C.ar    
  24 C24           -0.9705    -2.8124    -5.1498 C.3     
  25 F25           -2.0642    -3.6251    -5.4669 F       
  26 F26           -1.2441    -1.4937    -5.5287 F       
  27 F27            0.1626    -3.2681    -5.8322 F       
  28 Cl28           1.3310    -1.1611    -4.1319 Cl      
  29 H29            0.0450    -1.2775     1.4631 H       
  30 H30           -0.6440    -0.8898    -0.1382 H       
  31 H31            2.6436    -0.3897     1.6997 H       
  32 H32            3.5020    -0.2517     0.1455 H       
  33 H33            2.4947     1.8701    -0.3356 H       
  34 H34            2.9877     1.9605     1.3735 H       
  35 H35           -0.7011     5.2304     2.3816 H       
  36 H36            0.5542     7.3676     2.7007 H       
  37 H37            2.9804     7.3958     2.1770 H       
  38 H38           -2.3358    -4.2116    -3.2905 H       
  39 H39           -1.9370    -4.3086    -0.8653 H       
  40 H40           -0.0893    -3.0312     0.1351 H       
@<TRIPOS>BOND
   1    1    2 1
   2    1    3 1
   3    1    8 2
   4    2    4 1
   5    2   29 1
   6    2   30 1
   7    3    6 1
   8    3    9 1
   9    4    5 1
  10    4   16 am
  11    5    6 1
  12    5   31 1
  13    5   32 1
  14    6   33 1
  15    6   34 1
  16    7    8 1
  17    7    9 2
  18    9   10 1
  19   10   11 ar
  20   10   15 ar
  21   11   12 ar
  22   11   35 1
  23   12   13 ar
  24   12   36 1
  25   13   14 ar
  26   13   37 1
  27   14   15 ar
  28   16   17 2
  29   16   18 1
  30   18   19 ar
  31   18   23 ar
  32   19   20 ar
  33   19   28 1
  34   20   21 ar
  35   20   24 1
  36   21   22 ar
  37   21   38 1
  38   22   23 ar
  39   22   39 1
  40   23   40 1
  41   24   25 1
  42   24   26 1
  43   24   27 1

#	End of record

