#	Name: ASD01190101
#	Creating user name:	WinNT
#	Creation time:	15. 06. 2019 19:07

#	Modifying user name:	WinNT
#	Modification time:	15. 06. 2019 19:07

#	Program:	/corina/corina34_cracker 3.40 0067  02.08.2006

@<TRIPOS>MOLECULE
ASD01190101
  61   64    0    0    0
SMALL
NO_CHARGES


@<TRIPOS>ATOM
   1 N1             0.1891     0.6533     1.5666 N.pl3   
   2 C2             0.3472    -0.2866     0.5735 C.2     
   3 C3             1.6081    -0.8272     0.7101 C.2     
   4 C4             2.2090    -0.1968     1.8041 C.2     
   5 C5             1.3245     0.6981     2.3055 C.2     
   6 C6            -0.6454    -0.6478    -0.4443 C.2     
   7 O7            -1.7862    -0.2335    -0.3556 O.2     
   8 N8            -0.2939    -1.4384    -1.4776 N.am    
   9 C9            -1.2903    -1.8157    -2.4832 C.3     
  10 C10            1.0844    -1.9205    -1.5953 C.3     
  11 C11            3.5947    -0.4658     2.3320 C.3     
  12 C12            4.6101    -0.3205     1.1968 C.3     
  13 O13            3.9002     0.4707     3.3672 O.3     
  14 N14            3.7455    -5.7786     4.1655 N.pl3   
  15 N15            3.3097    -6.4208     3.0019 N.2     
  16 C16            3.0777    -5.5438     2.0666 C.2     
  17 C17            3.3686    -4.2217     2.6118 C.ar    
  18 C18            3.3099    -2.9223     2.0957 C.ar    
  19 C19            3.6579    -1.8657     2.8865 C.ar    
  20 C20            4.0704    -2.0686     4.1978 C.ar    
  21 C21            4.1362    -3.3277     4.7238 C.ar    
  22 C22            3.7870    -4.4249     3.9412 C.ar    
  23 C23            4.0802    -6.4140     5.3683 C.ar    
  24 C24            3.3841    -7.5450     5.7743 C.ar    
  25 C25            3.7156    -8.1700     6.9603 C.ar    
  26 C26            4.7413    -7.6695     7.7447 C.ar    
  27 C27            5.4366    -6.5417     7.3418 C.ar    
  28 C28            5.1122    -5.9171     6.1536 C.ar    
  29 F29            5.0636    -8.2820     8.9049 F       
  30 F30            4.5514     0.9790     0.6821 F       
  31 F31            5.8964    -0.5703     1.6870 F       
  32 F32            4.3110    -1.2375     0.1834 F       
  33 C33           -1.0052     1.4733     1.7848 C.3     
  34 C34           -1.8847     0.8194     2.8524 C.3     
  35 C35           -3.0728     1.7319     3.1633 C.3     
  36 O36           -3.8268     1.1803     4.2447 O.3     
  37 O37           -2.3630    -0.4381     2.3708 O.3     
  38 H38            2.0486    -1.5933     0.0893 H       
  39 H39            1.4959     1.3422     3.1553 H       
  40 H40           -1.6830    -0.9178    -2.9603 H       
  41 H41           -0.8244    -2.4526    -3.2352 H       
  42 H42           -2.1047    -2.3574    -2.0023 H       
  43 H43            1.2110    -2.8126    -0.9818 H       
  44 H44            1.2971    -2.1625    -2.6366 H       
  45 H45            1.7709    -1.1452    -1.2550 H       
  46 H46            3.2956     0.4348     4.1211 H       
  47 H47            2.7319    -5.7573     1.0659 H       
  48 H48            2.9911    -2.7565     1.0772 H       
  49 H49            4.3426    -1.2205     4.8086 H       
  50 H50            4.4588    -3.4717     5.7444 H       
  51 H51            2.5839    -7.9354     5.1630 H       
  52 H52            3.1742    -9.0494     7.2766 H       
  53 H53            6.2360    -6.1528     7.9551 H       
  54 H54            5.6579    -5.0405     5.8372 H       
  55 H55           -0.7074     2.4674     2.1183 H       
  56 H56           -1.5649     1.5551     0.8531 H       
  57 H57           -1.3000     0.6627     3.7588 H       
  58 H58           -2.7085     2.7207     3.4416 H       
  59 H59           -3.7085     1.8137     2.2817 H       
  60 H60           -4.5972     1.7078     4.4964 H       
  61 H61           -3.0016    -0.3654     1.6482 H       
@<TRIPOS>BOND
   1    1    2 1
   2    1    5 1
   3    1   33 1
   4    2    3 2
   5    2    6 1
   6    3    4 1
   7    3   38 1
   8    4    5 2
   9    4   11 1
  10    5   39 1
  11    6    7 2
  12    6    8 am
  13    8    9 1
  14    8   10 1
  15    9   40 1
  16    9   41 1
  17    9   42 1
  18   10   43 1
  19   10   44 1
  20   10   45 1
  21   11   12 1
  22   11   13 1
  23   11   19 1
  24   12   30 1
  25   12   31 1
  26   12   32 1
  27   13   46 1
  28   14   15 1
  29   14   22 1
  30   14   23 1
  31   15   16 2
  32   16   17 1
  33   16   47 1
  34   17   18 ar
  35   17   22 ar
  36   18   19 ar
  37   18   48 1
  38   19   20 ar
  39   20   21 ar
  40   20   49 1
  41   21   22 ar
  42   21   50 1
  43   23   24 ar
  44   23   28 ar
  45   24   25 ar
  46   24   51 1
  47   25   26 ar
  48   25   52 1
  49   26   27 ar
  50   26   29 1
  51   27   28 ar
  52   27   53 1
  53   28   54 1
  54   33   34 1
  55   33   55 1
  56   33   56 1
  57   34   35 1
  58   34   37 1
  59   34   57 1
  60   35   36 1
  61   35   58 1
  62   35   59 1
  63   36   60 1
  64   37   61 1

#	End of record

