#	Name: ASD01820101
#	Creating user name:	WinNT
#	Creation time:	15. 06. 2019 19:36

#	Modifying user name:	WinNT
#	Modification time:	15. 06. 2019 19:36

#	Program:	/corina/corina34_cracker 3.40 0067  02.08.2006

@<TRIPOS>MOLECULE
ASD01820101
  90   91    0    0    0
SMALL
NO_CHARGES


@<TRIPOS>ATOM
   1 C1             0.8968     2.2564     1.8772 C.ar    
   2 C2             1.8672     2.9077     1.0823 C.ar    
   3 C3             2.8892     2.1581     0.5187 C.ar    
   4 C4             2.9513     0.7868     0.7367 C.ar    
   5 C5             2.0227     0.1412     1.5017 C.ar    
   6 C6             0.9711     0.8642     2.0913 C.ar    
   7 C7            -0.0089     0.2458     2.8872 C.ar    
   8 C8            -1.0118     0.9907     3.4383 C.ar    
   9 C9            -1.0959     2.3631     3.2348 C.ar    
  10 C10           -0.1454     3.0122     2.4607 C.ar    
  11 N11            0.7481     5.0502     1.4484 N.am    
  12 C12            1.7565     4.3601     0.8824 C.2     
  13 C13           -0.1892     4.4611     2.2150 C.2     
  14 C14            0.6712     6.4963     1.2264 C.3     
  15 C15           -0.1661     6.7766    -0.0230 C.3     
  16 C16           -0.2465     8.2868    -0.2548 C.3     
  17 N17           -0.5362     8.5502    -1.6707 N.4     
  18 C18           -0.7924     9.9843    -1.8596 C.3     
  19 C19           -1.0942    10.2586    -3.3342 C.3     
  20 C20           -1.9295    13.5202    -5.2023 C.3     
  21 C21           -2.2313    13.7945    -6.6769 C.3     
  22 N22           -2.4875    15.2286    -6.8658 N.4     
  23 C23           -2.7772    15.4920    -8.2816 C.3     
  24 C24           -3.0339    16.9290    -8.4709 C.1     
  25 C25           -3.2386    18.0752    -8.6218 C.1     
  26 C26           -3.4952    19.5122    -8.8111 C.3     
  27 O27           -3.7771    19.7684   -10.1884 O.3     
  28 C28           -4.0379    21.0543   -10.5350 C.2     
  29 O29           -4.3235    23.1055   -10.3440 O.3     
  30 C30           -4.5192    22.8701   -11.6494 C.2     
  31 C31           -4.3474    21.5408   -11.8320 C.2     
  32 N32           -4.0600    22.0911    -9.7410 N.2     
  33 C33           -3.6384    15.6325    -6.0471 C.3     
  34 C34           -1.3029    15.9955    -6.4575 C.3     
  35 O35            2.5774     4.9407     0.1983 O.2     
  36 O36           -1.0768     5.1313     2.7069 O.2     
  37 C37            0.6147     8.1463    -2.4894 C.3     
  38 C38           -1.7208     7.7833    -2.0789 C.3     
  39 C39           -1.6627    12.0266    -5.0056 C.3     
  40 C40           -1.3609    11.7523    -3.5309 C.3     
  41 C41            0.4867     6.1087    -1.2349 C.3     
  42 C42           -1.5759     6.2147     0.1712 C.3     
  43 H43            3.6383     2.6411    -0.0912 H       
  44 H44            3.7533     0.2181     0.2899 H       
  45 H45            2.0959    -0.9256     1.6536 H       
  46 H46            0.0312    -0.8191     3.0625 H       
  47 H47           -1.7580     0.5016     4.0469 H       
  48 H48           -1.9008     2.9260     3.6838 H       
  49 H49            0.2062     6.9721     2.0898 H       
  50 H50            1.6756     6.8965     1.0881 H       
  51 H51           -1.0400     8.7075     0.3628 H       
  52 H52            0.7048     8.7466     0.0130 H       
  53 H53           -1.6463    10.2840    -1.2521 H       
  54 H54            0.0866    10.5533    -1.5566 H       
  55 H55           -0.2402     9.9589    -3.9417 H       
  56 H56           -1.9731     9.6896    -3.6371 H       
  57 H57           -1.0506    14.0893    -4.8993 H       
  58 H58           -2.7835    13.8199    -4.5948 H       
  59 H59           -1.3774    13.4949    -7.2844 H       
  60 H60           -3.1103    13.2255    -6.9798 H       
  61 H61           -1.9233    15.1923    -8.8891 H       
  62 H62           -3.6562    14.9230    -8.5846 H       
  63 H63           -4.3492    19.8119    -8.2036 H       
  64 H64           -2.6163    20.0812    -8.5081 H       
  65 H65           -4.7667    23.5990   -12.4069 H       
  66 H66           -4.4269    20.9798   -12.7514 H       
  67 H67           -3.4233    15.4371    -4.9965 H       
  68 H68           -3.8284    16.6966    -6.1872 H       
  69 H69           -4.5173    15.0635    -6.3500 H       
  70 H70           -0.4489    15.6959    -7.0650 H       
  71 H71           -1.4930    17.0597    -6.5977 H       
  72 H72           -1.0879    15.8001    -5.4070 H       
  73 H73            0.5014     7.1037    -2.7862 H       
  74 H74            0.6657     8.7739    -3.3791 H       
  75 H75            1.5309     8.2618    -1.9103 H       
  76 H76           -2.4353     7.7531    -1.2564 H       
  77 H77           -2.1821     8.2602    -2.9437 H       
  78 H78           -1.4238     6.7674    -2.3397 H       
  79 H79           -2.5417    11.4575    -5.3085 H       
  80 H80           -0.8088    11.7269    -5.6130 H       
  81 H81           -2.2149    12.0519    -2.9234 H       
  82 H82           -0.4820    12.3213    -3.2280 H       
  83 H83            0.7100     5.0680    -0.9997 H       
  84 H84           -0.1952     6.1509    -2.0842 H       
  85 H85            1.4102     6.6311    -1.4841 H       
  86 H86           -2.1155     6.8285     0.8925 H       
  87 H87           -2.1052     6.2241    -0.7817 H       
  88 H88           -1.5114     5.1914     0.5410 H       
  89 Br89           8.7533    28.5990     9.0469 Br      
  90 Br90          13.7533    33.5990    14.0469 Br      
@<TRIPOS>BOND
   1    1    6 ar
   2    1    2 ar
   3    1   10 ar
   4    2    3 ar
   5    2   12 1
   6    3    4 ar
   7    3   43 1
   8    4    5 ar
   9    4   44 1
  10    5    6 ar
  11    5   45 1
  12    6    7 ar
  13    7    8 ar
  14    7   46 1
  15    8    9 ar
  16    8   47 1
  17    9   10 ar
  18    9   48 1
  19   10   13 1
  20   11   12 am
  21   11   13 am
  22   11   14 1
  23   12   35 2
  24   13   36 2
  25   14   15 1
  26   14   49 1
  27   14   50 1
  28   15   16 1
  29   15   41 1
  30   15   42 1
  31   16   17 1
  32   16   51 1
  33   16   52 1
  34   17   18 1
  35   17   37 1
  36   17   38 1
  37   18   19 1
  38   18   53 1
  39   18   54 1
  40   19   40 1
  41   19   55 1
  42   19   56 1
  43   20   21 1
  44   20   39 1
  45   20   57 1
  46   20   58 1
  47   21   22 1
  48   21   59 1
  49   21   60 1
  50   22   23 1
  51   22   33 1
  52   22   34 1
  53   23   24 1
  54   23   61 1
  55   23   62 1
  56   24   25 3
  57   25   26 1
  58   26   27 1
  59   26   63 1
  60   26   64 1
  61   27   28 1
  62   28   32 2
  63   28   31 1
  64   29   30 1
  65   29   32 1
  66   30   31 2
  67   30   65 1
  68   31   66 1
  69   33   67 1
  70   33   68 1
  71   33   69 1
  72   34   70 1
  73   34   71 1
  74   34   72 1
  75   37   73 1
  76   37   74 1
  77   37   75 1
  78   38   76 1
  79   38   77 1
  80   38   78 1
  81   39   40 1
  82   39   79 1
  83   39   80 1
  84   40   81 1
  85   40   82 1
  86   41   83 1
  87   41   84 1
  88   41   85 1
  89   42   86 1
  90   42   87 1
  91   42   88 1

#	End of record

