#	Name: ASD05720240
#	Creating user name:	WinNT
#	Creation time:	15. 06. 2019 21:02

#	Modifying user name:	WinNT
#	Modification time:	15. 06. 2019 21:02

#	Program:	/corina/corina34_cracker 3.40 0067  02.08.2006

@<TRIPOS>MOLECULE
ASD05720240
  70   74    0    0    0
SMALL
NO_CHARGES


@<TRIPOS>ATOM
   1 O1            -0.1053     1.1931     0.1313 O.3     
   2 C2             0.0756    -0.1222    -0.0316 C.2     
   3 N3             1.3623    -0.4853    -0.1227 N.am    
   4 C4             2.2046     0.7155    -0.0115 C.3     
   5 C5             1.1891     1.8613     0.1624 C.3     
   6 O6            -0.8429    -0.9154    -0.0909 O.2     
   7 C7             3.0269     0.9150    -1.2863 C.3     
   8 C8             2.0851     1.0595    -2.4833 C.3     
   9 C9             3.8781     2.1792    -1.1515 C.3     
  10 C10            3.5743    -3.2484    -0.6481 C.2     
  11 N11            3.1121    -2.0052    -0.4823 N.2     
  12 C12            1.8250    -1.7834    -0.2937 C.2     
  13 C13            0.9195    -2.8636    -0.2652 C.2     
  14 C14            1.3836    -4.1227    -0.4325 C.2     
  15 N15            2.7225    -4.3210    -0.6260 N.pl3   
  16 N16            3.4830    -5.4789    -0.8240 N.2     
  17 C17            4.7439    -5.1499    -0.9628 C.2     
  18 C18            4.8611    -3.7580    -0.8667 C.2     
  19 C19            6.1109    -2.9721    -0.9742 C.ar    
  20 C20            6.5848    -2.2582     0.1295 C.ar    
  21 C21            7.7484    -1.5274     0.0282 C.ar    
  22 C22            8.4525    -1.5001    -1.1758 C.ar    
  23 C23            7.9795    -2.2125    -2.2773 C.ar    
  24 C24            6.8195    -2.9483    -2.1762 C.ar    
  25 N25           11.5316     0.2262    -2.0226 N.pl3   
  26 N26           10.4540    -0.6086    -2.3604 N.2     
  27 C27            9.7044    -0.7125    -1.2845 C.2     
  28 N28           10.2597     0.0113    -0.3028 N.2     
  29 C29           11.3550     0.5773    -0.7362 C.2     
  30 C30           12.6349     0.6302    -2.8977 C.3     
  31 O31           13.5267     1.4831    -2.1770 O.3     
  32 C32           14.6442     1.9364    -2.9437 C.3     
  33 C33           15.5261     2.8368    -2.0765 C.3     
  34 Si34          16.9830     3.4278    -3.0760 Si      
  35 C35           16.3749     4.3892    -4.5514 C.3     
  36 C36           18.0569     4.5242    -2.0200 C.3     
  37 C37           17.9740     1.9608    -3.6562 C.3     
  38 Cl38           5.7077    -2.2916     1.6272 Cl      
  39 H39            2.8568     0.6464     0.8591 H       
  40 H40            1.2716     2.5729    -0.6591 H       
  41 H41            1.3379     2.3618     1.1192 H       
  42 H42            3.6774     0.0535    -1.4376 H       
  43 H43            2.6660     1.2855    -3.3775 H       
  44 H44            1.5392     0.1276    -2.6307 H       
  45 H45            1.3791     1.8682    -2.2946 H       
  46 H46            4.6085     2.0422    -0.3541 H       
  47 H47            4.3971     2.3697    -2.0908 H       
  48 H48            3.2350     3.0265    -0.9134 H       
  49 H49           -0.1348    -2.6872    -0.1107 H       
  50 H50            0.7044    -4.9622    -0.4133 H       
  51 H51            5.5587    -5.8393    -1.1284 H       
  52 H52            8.1153    -0.9754     0.8809 H       
  53 H53            8.5253    -2.1907    -3.2090 H       
  54 H54            6.4559    -3.5031    -3.0285 H       
  55 H55           12.0066     1.2177    -0.1602 H       
  56 H56           13.1731    -0.2552    -3.2362 H       
  57 H57           12.2374     1.1656    -3.7599 H       
  58 H58           15.2240     1.0781    -3.2832 H       
  59 H59           14.2884     2.4988    -3.8069 H       
  60 H60           14.9463     3.6951    -1.7370 H       
  61 H61           15.8819     2.2744    -1.2132 H       
  62 H62           15.7951     5.2474    -4.2119 H       
  63 H63           17.2273     4.7349    -5.1362 H       
  64 H64           15.7466     3.7476    -5.1692 H       
  65 H65           18.4127     3.9618    -1.1568 H       
  66 H66           18.9093     4.8700    -2.6048 H       
  67 H67           17.4771     5.3825    -1.6805 H       
  68 H68           17.3457     1.3193    -4.2741 H       
  69 H69           18.8264     2.3065    -4.2410 H       
  70 H70           18.3298     1.3983    -2.7930 H       
@<TRIPOS>BOND
   1    1    2 1
   2    1    5 1
   3    2    3 am
   4    2    6 2
   5    3    4 1
   6    3   12 1
   7    4    5 1
   8    4    7 1
   9    4   39 1
  10    5   40 1
  11    5   41 1
  12    7    8 1
  13    7    9 1
  14    7   42 1
  15    8   43 1
  16    8   44 1
  17    8   45 1
  18    9   46 1
  19    9   47 1
  20    9   48 1
  21   10   11 1
  22   10   15 1
  23   10   18 2
  24   11   12 2
  25   12   13 1
  26   13   14 2
  27   13   49 1
  28   14   15 1
  29   14   50 1
  30   15   16 1
  31   16   17 2
  32   17   18 1
  33   17   51 1
  34   18   19 1
  35   19   20 ar
  36   19   24 ar
  37   20   21 ar
  38   20   38 1
  39   21   22 ar
  40   21   52 1
  41   22   23 ar
  42   22   27 1
  43   23   24 ar
  44   23   53 1
  45   24   54 1
  46   25   26 1
  47   25   29 1
  48   25   30 1
  49   26   27 2
  50   27   28 1
  51   28   29 2
  52   29   55 1
  53   30   31 1
  54   30   56 1
  55   30   57 1
  56   31   32 1
  57   32   33 1
  58   32   58 1
  59   32   59 1
  60   33   34 1
  61   33   60 1
  62   33   61 1
  63   34   35 1
  64   34   36 1
  65   34   37 1
  66   35   62 1
  67   35   63 1
  68   35   64 1
  69   36   65 1
  70   36   66 1
  71   36   67 1
  72   37   68 1
  73   37   69 1
  74   37   70 1

#	End of record

