#	Name: ASD03731554
#	Creating user name:	WinNT
#	Creation time:	15. 06. 2019 20:45

#	Modifying user name:	WinNT
#	Modification time:	15. 06. 2019 20:45

#	Program:	/corina/corina34_cracker 3.40 0067  02.08.2006

@<TRIPOS>MOLECULE
ASD03731554
  36   37    0    0    0
SMALL
NO_CHARGES


@<TRIPOS>ATOM
   1 C1             0.7587     1.4152    -0.4019 C.2     
   2 C2             0.5740    -0.0457    -0.3015 C.ar    
   3 C3             1.5324    -0.9114    -0.8353 C.ar    
   4 C4             1.3567    -2.2737    -0.7392 C.ar    
   5 C5             0.2277    -2.7882    -0.1120 C.ar    
   6 C6            -0.7282    -1.9303     0.4199 C.ar    
   7 C7            -0.5569    -0.5668     0.3328 C.ar    
   8 O8             1.7458     1.8669    -0.9497 O.2     
   9 N9            -0.1694     2.2485     0.1086 N.am    
  10 S10            0.0379     3.8876    -0.0041 S.o2    
  11 O11           -1.1002     4.4306     0.6510 O.2     
  12 O12            1.3482     4.1105     0.4985 O.2     
  13 C13           -0.0282     4.2309    -1.7841 C.3     
  14 O14            0.0581    -4.1313    -0.0192 O.3     
  15 C15            0.5844    -4.7678     1.0600 C.ar    
  16 C16            0.5310    -6.1519     1.1447 C.ar    
  17 C17            1.0668    -6.7969     2.2421 C.ar    
  18 C18            1.6568    -6.0638     3.2569 C.ar    
  19 C19            1.7110    -4.6838     3.1745 C.ar    
  20 C20            1.1808    -4.0352     2.0759 C.ar    
  21 C21            1.0087    -8.2999     2.3348 C.3     
  22 F22            0.3705    -8.8127     1.2003 F       
  23 F23            2.3079    -8.8131     2.4110 F       
  24 F24            0.2936    -8.6693     3.4791 F       
  25 Cl25           2.3291    -6.8769     4.6356 Cl      
  26 H26            2.4095    -0.5124    -1.3229 H       
  27 H27            2.0967    -2.9433    -1.1518 H       
  28 H28           -1.6043    -2.3338     0.9057 H       
  29 H29           -1.2977     0.0990     0.7503 H       
  30 H30           -0.9588     1.8881     0.5421 H       
  31 H31           -0.9934     3.9146    -2.1795 H       
  32 H32            0.1011     5.2999    -1.9530 H       
  33 H33            0.7682     3.6843    -2.2893 H       
  34 H34            0.0704    -6.7243     0.3531 H       
  35 H35            2.1718    -4.1135     3.9675 H       
  36 H36            1.2273    -2.9582     2.0098 H       
@<TRIPOS>BOND
   1    1    2 1
   2    1    8 2
   3    1    9 am
   4    2    3 ar
   5    2    7 ar
   6    3    4 ar
   7    3   26 1
   8    4    5 ar
   9    4   27 1
  10    5    6 ar
  11    5   14 1
  12    6    7 ar
  13    6   28 1
  14    7   29 1
  15    9   10 am
  16    9   30 1
  17   10   11 2
  18   10   12 2
  19   10   13 1
  20   13   31 1
  21   13   32 1
  22   13   33 1
  23   14   15 1
  24   15   16 ar
  25   15   20 ar
  26   16   17 ar
  27   16   34 1
  28   17   18 ar
  29   17   21 1
  30   18   19 ar
  31   18   25 1
  32   19   20 ar
  33   19   35 1
  34   20   36 1
  35   21   22 1
  36   21   23 1
  37   21   24 1

#	End of record

