#	Name: ASD03091217
#	Creating user name:	WinNT
#	Creation time:	15. 06. 2019 20:30

#	Modifying user name:	WinNT
#	Modification time:	15. 06. 2019 20:30

#	Program:	/corina/corina34_cracker 3.40 0067  02.08.2006

@<TRIPOS>MOLECULE
ASD03091217
  64   68    0    0    0
SMALL
NO_CHARGES


@<TRIPOS>ATOM
   1 N1            -0.0860     1.4030    -0.0008 N.2     
   2 C2            -0.1587     0.0975     0.0135 C.2     
   3 N3             0.9449    -0.7120     0.0310 N.am    
   4 C4             2.1876    -0.1756     0.0338 C.2     
   5 C5             2.2935     1.2910     0.0173 C.ar    
   6 C6             3.5272     1.9377     0.0182 C.ar    
   7 C7             3.5682     3.3218     0.0018 C.ar    
   8 C8             2.3866     4.0631    -0.0150 C.ar    
   9 C9             1.1703     3.4433    -0.0161 C.ar    
  10 C10            1.0990     2.0468     0.0002 C.ar    
  11 O11            3.1799    -0.8805     0.0496 O.2     
  12 C12            0.7801    -2.1676     0.0474 C.3     
  13 C13            0.5870    -2.6751    -1.3830 C.3     
  14 C14            0.4148    -4.1953    -1.3659 C.3     
  15 C15            0.3466    -4.7171    -2.8026 C.3     
  16 C16            1.6042    -4.8352    -0.6469 C.3     
  17 O17           -0.7930    -4.5302    -0.6796 O.3     
  18 C18           -1.4953    -0.5336     0.0112 C.ar    
  19 C19           -1.8401    -1.4486     1.0075 C.ar    
  20 C20           -3.0901    -2.0344     0.9993 C.ar    
  21 C21           -4.0005    -1.7156     0.0055 C.ar    
  22 C22           -3.6640    -0.8100    -0.9843 C.ar    
  23 C23           -2.4200    -0.2129    -0.9838 C.ar    
  24 Cl24          -3.5215    -3.1731     2.2366 Cl      
  25 N25            7.5856     4.5453    -0.8320 N.3     
  26 C26            7.2479     3.7134     0.3330 C.3     
  27 C27            5.9075     3.0242     0.1307 C.3     
  28 N28            4.8010     3.9800     0.0026 N.3     
  29 C29            4.9614     4.7990    -1.2071 C.3     
  30 C30            5.6705     6.1034    -0.8748 C.3     
  31 C31            7.1513     5.9309    -0.6030 C.3     
  32 C32            7.1795     4.0338    -2.1235 C.3     
  33 C33            5.6678     3.9806    -2.2723 C.3     
  34 H34            4.4429     1.3652     0.0319 H       
  35 H35            2.4347     5.1420    -0.0270 H       
  36 H36            0.2641     4.0308    -0.0292 H       
  37 H37            1.6679    -2.6290     0.4799 H       
  38 H38           -0.0928    -2.4277     0.6462 H       
  39 H39           -0.3009    -2.2138    -1.8154 H       
  40 H40            1.4598    -2.4150    -1.9818 H       
  41 H41            1.2679    -4.4616    -3.3261 H       
  42 H42            0.2239    -5.8001    -2.7904 H       
  43 H43           -0.5007    -4.2612    -3.3148 H       
  44 H44            1.6528    -4.4635     0.3766 H       
  45 H45            1.4815    -5.9182    -0.6347 H       
  46 H46            2.5255    -4.5798    -1.1704 H       
  47 H47           -1.5898    -4.1574    -1.0810 H       
  48 H48           -1.1305    -1.6979     1.7826 H       
  49 H49           -4.9773    -2.1764     0.0032 H       
  50 H50           -4.3782    -0.5662    -1.7568 H       
  51 H51           -2.1608     0.4979    -1.7545 H       
  52 H52            8.0223     2.9590     0.4721 H       
  53 H53            7.1975     4.3431     1.2213 H       
  54 H54            5.9558     2.4168    -0.7730 H       
  55 H55            5.7138     2.3720     0.9823 H       
  56 H56            3.9679     5.0405    -1.5849 H       
  57 H57            5.5465     6.7915    -1.7110 H       
  58 H58            5.2021     6.5410     0.0068 H       
  59 H59            7.3570     6.2017     0.4326 H       
  60 H60            7.7134     6.5934    -1.2612 H       
  61 H61            7.5890     4.6763    -2.9029 H       
  62 H62            7.5826     3.0288    -2.2482 H       
  63 H63            5.3407     2.9435    -2.1972 H       
  64 H64            5.3948     4.3663    -3.2545 H       
@<TRIPOS>BOND
   1    1    2 2
   2    1   10 1
   3    2    3 1
   4    2   18 1
   5    3    4 am
   6    3   12 1
   7    4    5 1
   8    4   11 2
   9    5    6 ar
  10    5   10 ar
  11    6    7 ar
  12    6   34 1
  13    7    8 ar
  14    7   28 1
  15    8    9 ar
  16    8   35 1
  17    9   10 ar
  18    9   36 1
  19   12   13 1
  20   12   37 1
  21   12   38 1
  22   13   14 1
  23   13   39 1
  24   13   40 1
  25   14   15 1
  26   14   16 1
  27   14   17 1
  28   15   41 1
  29   15   42 1
  30   15   43 1
  31   16   44 1
  32   16   45 1
  33   16   46 1
  34   17   47 1
  35   18   19 ar
  36   18   23 ar
  37   19   20 ar
  38   19   48 1
  39   20   21 ar
  40   20   24 1
  41   21   22 ar
  42   21   49 1
  43   22   23 ar
  44   22   50 1
  45   23   51 1
  46   25   26 1
  47   25   31 1
  48   25   32 1
  49   26   27 1
  50   26   52 1
  51   26   53 1
  52   27   28 1
  53   27   54 1
  54   27   55 1
  55   28   29 1
  56   29   30 1
  57   29   33 1
  58   29   56 1
  59   30   31 1
  60   30   57 1
  61   30   58 1
  62   31   59 1
  63   31   60 1
  64   32   33 1
  65   32   61 1
  66   32   62 1
  67   33   63 1
  68   33   64 1

#	End of record

