#	Name: ASD06020003
#	Creating user name:	WinNT
#	Creation time:	15. 06. 2019 21:04

#	Modifying user name:	WinNT
#	Modification time:	15. 06. 2019 21:04

#	Program:	/corina/corina34_cracker 3.40 0067  02.08.2006

@<TRIPOS>MOLECULE
ASD06020003
  32   34    0    0    0
SMALL
NO_CHARGES


@<TRIPOS>ATOM
   1 C1            -0.0162     1.3436     0.0094 C.2     
   2 N2             0.0021    -0.0041     0.0020 N.am    
   3 O3             1.0277     1.9653     0.0028 O.2     
   4 O4            -1.1912     2.0008     0.0186 O.3     
   5 C5             1.2187    -0.6846    -0.0133 C.ar    
   6 C6             1.2334    -2.0830    -0.0209 C.ar    
   7 C7             2.4588    -2.7606    -0.0362 C.ar    
   8 C8             3.6341    -1.9672    -0.0432 C.ar    
   9 C9             3.5279    -0.6121    -0.0349 C.ar    
  10 N10            2.3516    -0.0050    -0.0259 N.ar    
  11 S11           -0.0596    -3.2772    -0.0155 S.3     
  12 C12            1.1267    -4.5758    -0.0340 C.2     
  13 N13            2.3242    -4.0869    -0.0425 N.2     
  14 C14            0.8021    -6.0173    -0.0382 C.ar    
  15 C15            1.8294    -6.9651    -0.0533 C.ar    
  16 C16            1.5264    -8.3092    -0.0567 C.ar    
  17 C17            0.1925    -8.7248    -0.0455 C.ar    
  18 C18           -0.8346    -7.7776    -0.0304 C.ar    
  19 C19           -0.5322    -6.4334    -0.0212 C.ar    
  20 C20           -0.1221   -10.1218    -0.0500 C.1     
  21 N21           -0.3717   -11.2301    -0.0536 N.1     
  22 Cl22          -1.8082    -5.2566     0.0043 Cl      
  23 Cl23           3.4868    -6.4488    -0.0684 Cl      
  24 C24           -1.1349     3.4517     0.0262 C.3     
  25 H25           -0.8313    -0.5005     0.0073 H       
  26 H26            4.6068    -2.4363    -0.0546 H       
  27 H27            4.4275    -0.0145    -0.0399 H       
  28 H28            2.3201    -9.0415    -0.0684 H       
  29 H29           -1.8656    -8.0991    -0.0218 H       
  30 H30           -0.6032     3.7900     0.9155 H       
  31 H31           -0.6116     3.7997    -0.8644 H       
  32 H32           -2.1477     3.8546     0.0332 H       
@<TRIPOS>BOND
   1    1    2 am
   2    1    3 2
   3    1    4 1
   4    2    5 1
   5    2   25 1
   6    4   24 1
   7    5    6 ar
   8    5   10 ar
   9    6    7 ar
  10    6   11 1
  11    7    8 ar
  12    7   13 1
  13    8    9 ar
  14    8   26 1
  15    9   10 ar
  16    9   27 1
  17   11   12 1
  18   12   13 2
  19   12   14 1
  20   14   15 ar
  21   14   19 ar
  22   15   16 ar
  23   15   23 1
  24   16   17 ar
  25   16   28 1
  26   17   18 ar
  27   17   20 1
  28   18   19 ar
  29   18   29 1
  30   19   22 1
  31   20   21 3
  32   24   30 1
  33   24   31 1
  34   24   32 1

#	End of record

