#	Name: ASD01911354
#	Creating user name:	WinNT
#	Creation time:	15. 06. 2019 19:57

#	Modifying user name:	WinNT
#	Modification time:	15. 06. 2019 19:57

#	Program:	/corina/corina34_cracker 3.40 0067  02.08.2006

@<TRIPOS>MOLECULE
ASD01911354
  40   42    0    0    0
SMALL
NO_CHARGES


@<TRIPOS>ATOM
   1 C1            -0.0173     1.4278     0.0099 C.ar    
   2 C2             0.0021    -0.0041     0.0020 C.1     
   3 C3             0.0180    -1.1779    -0.0044 C.1     
   4 C4             0.0374    -2.6098    -0.0123 C.ar    
   5 N5            -1.1126    -3.2811    -0.0049 N.ar    
   6 C6            -1.1402    -4.5954    -0.0112 C.ar    
   7 C7             0.0510    -5.3262    -0.0425 C.ar    
   8 C8             1.2772    -4.6524    -0.0437 C.ar    
   9 C9             1.2646    -3.2821    -0.0335 C.ar    
  10 C10           -2.4537    -5.3335     0.0370 C.3     
  11 C11           -2.3547    -6.6318    -0.7596 C.3     
  12 N12           -1.1812    -7.4045    -0.3586 N.am    
  13 C13           -0.0076    -6.7989    -0.0944 C.2     
  14 O14            0.9941    -7.4601     0.0999 O.2     
  15 C15           -1.2829    -8.8613    -0.2419 C.3     
  16 C16           -0.2934    -9.5203    -1.2050 C.3     
  17 C17           -0.9559    -9.2821     1.1923 C.3     
  18 C18            1.1823     2.1472     0.0023 C.ar    
  19 C19            1.1546     3.5276     0.0095 C.ar    
  20 C20           -0.0552     4.1982     0.0242 C.ar    
  21 C21           -1.2461     3.4926     0.0318 C.ar    
  22 C22           -1.2353     2.1139     0.0194 C.ar    
  23 Cl23           2.7013     1.3070    -0.0155 Cl      
  24 H24            2.2093    -5.1979    -0.0566 H       
  25 H25            2.1913    -2.7274    -0.0339 H       
  26 H26           -2.7015    -5.5633     1.0733 H       
  27 H27           -3.2366    -4.7065    -0.3895 H       
  28 H28           -3.2513    -7.2270    -0.5869 H       
  29 H29           -2.2820    -6.3956    -1.8213 H       
  30 H30           -2.2964    -9.1758    -0.4908 H       
  31 H31           -0.3690   -10.6042    -1.1182 H       
  32 H32           -0.5263    -9.2205    -2.2267 H       
  33 H33            0.7201    -9.2057    -0.9561 H       
  34 H34           -1.6608    -8.8126     1.8784 H       
  35 H35           -1.0315   -10.3660     1.2790 H       
  36 H36            0.0576    -8.9675     1.4411 H       
  37 H37            2.0795     4.0851     0.0040 H       
  38 H38           -0.0707     5.2781     0.0301 H       
  39 H39           -2.1865     4.0236     0.0432 H       
  40 H40           -2.1656     1.5653     0.0253 H       
@<TRIPOS>BOND
   1    1    2 1
   2    1   18 ar
   3    1   22 ar
   4    2    3 3
   5    3    4 1
   6    4    5 ar
   7    4    9 ar
   8    5    6 ar
   9    6    7 ar
  10    6   10 1
  11    7    8 ar
  12    7   13 1
  13    8    9 ar
  14    8   24 1
  15    9   25 1
  16   10   11 1
  17   10   26 1
  18   10   27 1
  19   11   12 1
  20   11   28 1
  21   11   29 1
  22   12   13 am
  23   12   15 1
  24   13   14 2
  25   15   16 1
  26   15   17 1
  27   15   30 1
  28   16   31 1
  29   16   32 1
  30   16   33 1
  31   17   34 1
  32   17   35 1
  33   17   36 1
  34   18   19 ar
  35   18   23 1
  36   19   20 ar
  37   19   37 1
  38   20   21 ar
  39   20   38 1
  40   21   22 ar
  41   21   39 1
  42   22   40 1

#	End of record

