#	Name: ASD03430424
#	Creating user name:	WinNT
#	Creation time:	15. 06. 2019 20:41

#	Modifying user name:	WinNT
#	Modification time:	15. 06. 2019 20:41

#	Program:	/corina/corina34_cracker 3.40 0067  02.08.2006

@<TRIPOS>MOLECULE
ASD03430424
  60   65    0    0    0
SMALL
NO_CHARGES


@<TRIPOS>ATOM
   1 O1             0.7561    -1.1416     1.7284 O.3     
   2 C2             1.2300    -2.4776     1.9151 C.3     
   3 C3             2.4549    -2.4628     2.7937 C.2     
   4 N4             3.2911    -1.4024     2.7596 N.am    
   5 C5             2.9781    -0.3160     1.9269 C.ar    
   6 C6             1.6865    -0.2008     1.4142 C.ar    
   7 C7             3.9358     0.6338     1.6146 C.ar    
   8 C8             3.6091     1.6978     0.7938 C.ar    
   9 C9             2.3247     1.8151     0.2837 C.ar    
  10 C10            1.3624     0.8642     0.5933 C.ar    
  11 O11            2.6885    -3.3992     3.5286 O.2     
  12 C12            4.5058    -1.3863     3.5784 C.3     
  13 O13            2.0078     2.8636    -0.5218 O.3     
  14 N14            6.5036     3.1125     1.7636 N.am    
  15 C15            5.1876     3.3790     1.7124 C.2     
  16 C16            4.6508     2.7322     0.4532 C.3     
  17 C17            5.8628     2.0782    -0.1693 C.ar    
  18 C18            6.0420     1.3385    -1.3166 C.ar    
  19 C19            7.2993     0.8583    -1.6389 C.ar    
  20 C20            8.3712     1.1238    -0.8063 C.ar    
  21 C21            8.1944     1.8646     0.3438 C.ar    
  22 C22            6.9313     2.3516     0.6750 C.ar    
  23 O23            4.5497     4.0173     2.5227 O.2     
  24 C24            7.3889     3.5733     2.8360 C.3     
  25 C25            8.5916     4.2552     2.2363 C.ar    
  26 C26            9.8487     4.0315     2.7661 C.ar    
  27 C27           10.9519     4.6570     2.2161 C.ar    
  28 C28           10.7981     5.5059     1.1360 C.ar    
  29 C29            9.5412     5.7289     0.6056 C.ar    
  30 C30            8.4385     5.1000     1.1529 C.ar    
  31 C31            6.6473     4.5457     3.7167 C.ar    
  32 C32            6.4411     4.2507     5.0514 C.ar    
  33 C33            5.7608     5.1426     5.8592 C.ar    
  34 C34            5.2871     6.3296     5.3324 C.ar    
  35 C35            5.4941     6.6250     3.9979 C.ar    
  36 C36            6.1782     5.7350     3.1911 C.ar    
  37 H37            0.4514    -3.0760     2.3882 H       
  38 H38            1.4827    -2.9115     0.9476 H       
  39 H39            4.9362     0.5441     2.0116 H       
  40 H40            0.3627     0.9564     0.1954 H       
  41 H41            4.5710    -2.3121     4.1501 H       
  42 H42            5.3787    -1.2965     2.9317 H       
  43 H43            4.4717    -0.5385     4.2625 H       
  44 H44            2.1542     2.6951    -1.4626 H       
  45 H45            4.2349     3.4857    -0.2157 H       
  46 H46            5.2024     1.1330    -1.9641 H       
  47 H47            7.4429     0.2775    -2.5380 H       
  48 H48            9.3523     0.7486    -1.0578 H       
  49 H49            9.0365     2.0677     0.9888 H       
  50 H50            7.7142     2.7197     3.4306 H       
  51 H51            9.9688     3.3683     3.6100 H       
  52 H52           11.9339     4.4828     2.6305 H       
  53 H53           11.6599     5.9952     0.7067 H       
  54 H54            9.4210     6.3924    -0.2380 H       
  55 H55            7.4570     5.2713     0.7362 H       
  56 H56            6.8112     3.3234     5.4629 H       
  57 H57            5.5991     4.9119     6.9018 H       
  58 H58            4.7549     7.0261     5.9634 H       
  59 H59            5.1237     7.5522     3.5863 H       
  60 H60            6.3431     5.9674     2.1494 H       
@<TRIPOS>BOND
   1    1    2 1
   2    1    6 1
   3    2    3 1
   4    2   37 1
   5    2   38 1
   6    3    4 am
   7    3   11 2
   8    4    5 1
   9    4   12 1
  10    5    6 ar
  11    5    7 ar
  12    6   10 ar
  13    7    8 ar
  14    7   39 1
  15    8    9 ar
  16    8   16 1
  17    9   10 ar
  18    9   13 1
  19   10   40 1
  20   12   41 1
  21   12   42 1
  22   12   43 1
  23   13   44 1
  24   14   15 am
  25   14   22 1
  26   14   24 1
  27   15   16 1
  28   15   23 2
  29   16   17 1
  30   16   45 1
  31   17   18 ar
  32   17   22 ar
  33   18   19 ar
  34   18   46 1
  35   19   20 ar
  36   19   47 1
  37   20   21 ar
  38   20   48 1
  39   21   22 ar
  40   21   49 1
  41   24   25 1
  42   24   31 1
  43   24   50 1
  44   25   26 ar
  45   25   30 ar
  46   26   27 ar
  47   26   51 1
  48   27   28 ar
  49   27   52 1
  50   28   29 ar
  51   28   53 1
  52   29   30 ar
  53   29   54 1
  54   30   55 1
  55   31   32 ar
  56   31   36 ar
  57   32   33 ar
  58   32   56 1
  59   33   34 ar
  60   33   57 1
  61   34   35 ar
  62   34   58 1
  63   35   36 ar
  64   35   59 1
  65   36   60 1

#	End of record

