#	Name: ASD01811840
#	Creating user name:	WinNT
#	Creation time:	15. 06. 2019 19:27

#	Modifying user name:	WinNT
#	Modification time:	15. 06. 2019 19:27

#	Program:	/corina/corina34_cracker 3.40 0067  02.08.2006

@<TRIPOS>MOLECULE
ASD01811840
  56   58    0    0    0
SMALL
NO_CHARGES


@<TRIPOS>ATOM
   1 C1            -0.0167     1.3805     0.0096 C.ar    
   2 C2             0.0021    -0.0041     0.0020 C.ar    
   3 C3            -1.1845    -0.7161     0.0090 C.ar    
   4 C4            -2.3942    -0.0535     0.0241 C.ar    
   5 C5            -2.4213     1.3425     0.0323 C.ar    
   6 C6            -1.2177     2.0512     0.0304 C.ar    
   7 C7             1.2777     2.1522     0.0014 C.3     
   8 C8             1.3184    -0.7376    -0.0144 C.3     
   9 C9            -1.1549    -2.2228    -0.0004 C.3     
  10 C10           -1.0078    -2.7311     1.4107 C.ar    
  11 C11           -2.1327    -2.9881     2.1725 C.ar    
  12 C12           -2.0004    -3.4541     3.4662 C.ar    
  13 C13           -0.7377    -3.6643     4.0009 C.ar    
  14 C14            0.3894    -3.4057     3.2345 C.ar    
  15 C15            0.2518    -2.9452     1.9393 C.ar    
  16 O16           -0.6050    -4.1223     5.2735 O.3     
  17 C17            0.7254    -4.3155     5.7581 C.3     
  18 C18           -3.5309     2.3149     0.0477 C.2     
  19 N19           -3.0504     3.5703     0.0501 N.am    
  20 C20           -1.5841     3.5142     0.0402 C.3     
  21 O21           -4.7107     2.0226     0.0563 O.2     
  22 C22           -3.8575     4.7928     0.0640 C.3     
  23 C23           -4.7522     4.8275    -1.1766 C.3     
  24 C24           -4.7285     4.8146     1.3217 C.3     
  25 O25           -5.5904     3.6748     1.3240 O.3     
  26 C26           -3.8338     4.7800     2.5624 C.3     
  27 C27           -5.5714     6.0914     1.3363 C.3     
  28 H28           -3.3180    -0.6130     0.0291 H       
  29 H29            1.5800     2.3437    -1.0282 H       
  30 H30            1.1390     3.0999     0.5217 H       
  31 H31            2.0504     1.5710     0.5048 H       
  32 H32            1.6456    -0.9199     1.0092 H       
  33 H33            1.1977    -1.6891    -0.5323 H       
  34 H34            2.0641    -0.1342    -0.5322 H       
  35 H35           -2.0831    -2.6018    -0.4281 H       
  36 H36           -0.3118    -2.5659    -0.5999 H       
  37 H37           -3.1155    -2.8239     1.7559 H       
  38 H38           -2.8794    -3.6543     4.0610 H       
  39 H39            1.3735    -3.5686     3.6484 H       
  40 H40            1.1289    -2.7437     1.3422 H       
  41 H41            1.2388    -5.0434     5.1298 H       
  42 H42            1.2634    -3.3679     5.7302 H       
  43 H43            0.6888    -4.6825     6.7838 H       
  44 H44           -1.1849     3.9949     0.9333 H       
  45 H45           -1.1966     4.0028    -0.8538 H       
  46 H46           -3.2001     5.6623     0.0623 H       
  47 H47           -5.3527     5.7371    -1.1662 H       
  48 H48           -4.1317     4.8120    -2.0726 H       
  49 H49           -5.4096     3.9581    -1.1749 H       
  50 H50           -6.1872     3.6314     0.5644 H       
  51 H51           -3.1764     5.6494     2.5606 H       
  52 H52           -4.4543     4.7955     3.4584 H       
  53 H53           -3.2333     3.8704     2.5520 H       
  54 H54           -6.2088     6.1161     0.4524 H       
  55 H55           -6.1919     6.1069     2.2323 H       
  56 H56           -4.9140     6.9608     1.3345 H       
@<TRIPOS>BOND
   1    1    2 ar
   2    1    7 1
   3    1    6 ar
   4    2    3 ar
   5    2    8 1
   6    3    4 ar
   7    3    9 1
   8    4    5 ar
   9    4   28 1
  10    5    6 ar
  11    5   18 1
  12    6   20 1
  13    7   29 1
  14    7   30 1
  15    7   31 1
  16    8   32 1
  17    8   33 1
  18    8   34 1
  19    9   10 1
  20    9   35 1
  21    9   36 1
  22   10   11 ar
  23   10   15 ar
  24   11   12 ar
  25   11   37 1
  26   12   13 ar
  27   12   38 1
  28   13   14 ar
  29   13   16 1
  30   14   15 ar
  31   14   39 1
  32   15   40 1
  33   16   17 1
  34   17   41 1
  35   17   42 1
  36   17   43 1
  37   18   19 am
  38   18   21 2
  39   19   20 1
  40   19   22 1
  41   20   44 1
  42   20   45 1
  43   22   23 1
  44   22   24 1
  45   22   46 1
  46   23   47 1
  47   23   48 1
  48   23   49 1
  49   24   25 1
  50   24   26 1
  51   24   27 1
  52   25   50 1
  53   26   51 1
  54   26   52 1
  55   26   53 1
  56   27   54 1
  57   27   55 1
  58   27   56 1

#	End of record

