#	Name: ASD03330005
#	Creating user name:	WinNT
#	Creation time:	15. 06. 2019 20:36

#	Modifying user name:	WinNT
#	Modification time:	15. 06. 2019 20:36

#	Program:	/corina/corina34_cracker 3.40 0067  02.08.2006

@<TRIPOS>MOLECULE
ASD03330005
  50   52    0    0    0
SMALL
NO_CHARGES


@<TRIPOS>ATOM
   1 C1            -0.0360     1.4592    -0.0439 C.ar    
   2 C2            -0.0098     0.0687    -0.0258 C.ar    
   3 C3            -1.1813    -0.6547    -0.0068 C.ar    
   4 C4            -2.4048     0.0085    -0.0050 C.ar    
   5 C5            -2.4299     1.4168    -0.0228 C.ar    
   6 C6            -1.2253     2.1320    -0.0369 C.ar    
   7 N7            -3.7103    -0.4254     0.0119 N.pl3   
   8 C8            -4.5448     0.6754     0.0051 C.2     
   9 C9            -3.7912     1.8058    -0.0160 C.2     
  10 F10            1.1245     2.1507    -0.0629 F       
  11 C11           -4.3112     3.2202    -0.0288 C.3     
  12 C12           -4.4745     3.7166     1.4092 C.3     
  13 C13           -6.0146     0.6309     0.0185 C.2     
  14 N14           -6.6527    -0.5560     0.0397 N.am    
  15 O15           -6.6546     1.6654     0.0103 O.2     
  16 C16           -8.1170    -0.6004     0.0531 C.3     
  17 C17           -8.5829    -2.0575     0.0764 C.3     
  18 C18          -10.0892    -2.1031     0.0901 C.ar    
  19 C19          -10.7891    -2.1399    -1.1019 C.ar    
  20 C20          -12.1695    -2.1817    -1.0930 C.ar    
  21 C21          -12.8548    -2.1868     0.1153 C.ar    
  22 C22          -12.1486    -2.1499     1.3109 C.ar    
  23 C23          -10.7681    -2.1138     1.2948 C.ar    
  24 N24          -14.2508    -2.2286     0.1280 N.pl3   
  25 C25          -14.9979    -2.1369    -1.1289 C.3     
  26 C26          -14.9681    -2.3643     1.3982 C.3     
  27 H27            0.9384    -0.4485    -0.0271 H       
  28 H28           -1.1507    -1.7342     0.0064 H       
  29 H29           -1.2368     3.2118    -0.0506 H       
  30 H30           -3.9975    -1.3518     0.0260 H       
  31 H31           -3.6059     3.8619    -0.5568 H       
  32 H32           -5.2764     3.2479    -0.5345 H       
  33 H33           -5.1799     3.0750     1.9372 H       
  34 H34           -3.5093     3.6889     1.9149 H       
  35 H35           -4.8506     4.7396     1.3999 H       
  36 H36           -6.1424    -1.3810     0.0462 H       
  37 H37           -8.4880    -0.0860     0.9396 H       
  38 H38           -8.5035    -0.1096    -0.8402 H       
  39 H39           -8.2119    -2.5719    -0.8101 H       
  40 H40           -8.1964    -2.5483     0.9696 H       
  41 H41          -10.2557    -2.1355    -2.0410 H       
  42 H42          -12.7155    -2.2100    -2.0243 H       
  43 H43          -12.6783    -2.1538     2.2521 H       
  44 H44          -10.2183    -2.0854     2.2240 H       
  45 H45          -15.1534    -3.1372    -1.5330 H       
  46 H46          -15.9632    -1.6655    -0.9442 H       
  47 H47          -14.4329    -1.5396    -1.8446 H       
  48 H48          -14.2515    -2.5125     2.2061 H       
  49 H49          -15.5467    -1.4600     1.5871 H       
  50 H50          -15.6397    -3.2212     1.3465 H       
@<TRIPOS>BOND
   1    1    2 ar
   2    1   10 1
   3    1    6 ar
   4    2    3 ar
   5    2   27 1
   6    3    4 ar
   7    3   28 1
   8    4    5 ar
   9    4    7 1
  10    5    6 ar
  11    5    9 1
  12    6   29 1
  13    7    8 1
  14    7   30 1
  15    8    9 2
  16    8   13 1
  17    9   11 1
  18   11   12 1
  19   11   31 1
  20   11   32 1
  21   12   33 1
  22   12   34 1
  23   12   35 1
  24   13   14 am
  25   13   15 2
  26   14   16 1
  27   14   36 1
  28   16   17 1
  29   16   37 1
  30   16   38 1
  31   17   18 1
  32   17   39 1
  33   17   40 1
  34   18   19 ar
  35   18   23 ar
  36   19   20 ar
  37   19   41 1
  38   20   21 ar
  39   20   42 1
  40   21   22 ar
  41   21   24 1
  42   22   23 ar
  43   22   43 1
  44   23   44 1
  45   24   25 1
  46   24   26 1
  47   25   45 1
  48   25   46 1
  49   25   47 1
  50   26   48 1
  51   26   49 1
  52   26   50 1

#	End of record

