#	Name: ASD06340005
#	Creating user name:	WinNT
#	Creation time:	15. 06. 2019 21:05

#	Modifying user name:	WinNT
#	Modification time:	15. 06. 2019 21:05

#	Program:	/corina/corina34_cracker 3.40 0067  02.08.2006

@<TRIPOS>MOLECULE
ASD06340005
  40   42    0    0    0
SMALL
NO_CHARGES


@<TRIPOS>ATOM
   1 C1            -0.0161     1.3337     0.0094 C.2     
   2 N2             0.0021    -0.0041     0.0020 N.am    
   3 C3             1.2613    -0.4841    -0.0126 C.2     
   4 C4             2.1640     0.7337    -0.0147 C.3     
   5 N5             1.2200     1.8645     0.0004 N.am    
   6 O6            -1.0354     1.9955     0.0180 O.2     
   7 O7             1.6013    -1.6477    -0.0215 O.2     
   8 C8             1.5456     3.2254     0.0039 C.ar    
   9 C9             0.5388     4.1817     0.0184 C.ar    
  10 C10            2.1894     5.9163     0.0118 C.ar    
  11 C11            2.8763     3.6225    -0.0013 C.ar    
  12 C12            0.8634     5.5241     0.0223 C.ar    
  13 C13            3.1944     4.9665     0.0027 C.ar    
  14 C14            2.5401     7.3819     0.0156 C.3     
  15 C15           -1.1986    -0.8435     0.0097 C.3     
  16 C16           -1.6247    -1.1237    -1.4083 C.ar    
  17 C17           -1.1343    -2.2333    -2.0710 C.ar    
  18 C18           -1.5252    -2.4903    -3.3718 C.ar    
  19 C19           -2.4068    -1.6379    -4.0098 C.ar    
  20 C20           -2.8979    -0.5288    -3.3468 C.ar    
  21 C21           -2.5104    -0.2741    -2.0446 C.ar    
  22 C22           -2.8322    -1.9175    -5.4282 C.3     
  23 H23            2.7924     0.7467     0.8759 H       
  24 H24            2.7753     0.7564    -0.9169 H       
  25 H25           -0.4970     3.8760     0.0262 H       
  26 H26            3.6617     2.8812    -0.0080 H       
  27 H27            0.0808     6.2683     0.0332 H       
  28 H28            4.2291     5.2760    -0.0059 H       
  29 H29            2.6342     7.7303     1.0441 H       
  30 H30            3.4853     7.5307    -0.5063 H       
  31 H31            1.7543     7.9448    -0.4882 H       
  32 H32           -0.9813    -1.7838     0.5163 H       
  33 H33           -2.0010    -0.3250     0.5345 H       
  34 H34           -0.4456    -2.8993    -1.5725 H       
  35 H35           -1.1415    -3.3569    -3.8897 H       
  36 H36           -3.5864     0.1374    -3.8454 H       
  37 H37           -2.8970     0.5904    -1.5254 H       
  38 H38           -3.7250    -2.5427    -5.4232 H       
  39 H39           -3.0499    -0.9771    -5.9343 H       
  40 H40           -2.0292    -2.4351    -5.9530 H       
@<TRIPOS>BOND
   1    1    2 am
   2    1    5 am
   3    1    6 2
   4    2    3 am
   5    2   15 1
   6    3    4 1
   7    3    7 2
   8    4    5 1
   9    4   23 1
  10    4   24 1
  11    5    8 1
  12    8    9 ar
  13    8   11 ar
  14    9   12 ar
  15    9   25 1
  16   10   12 ar
  17   10   13 ar
  18   10   14 1
  19   11   13 ar
  20   11   26 1
  21   12   27 1
  22   13   28 1
  23   14   29 1
  24   14   30 1
  25   14   31 1
  26   15   16 1
  27   15   32 1
  28   15   33 1
  29   16   17 ar
  30   16   21 ar
  31   17   18 ar
  32   17   34 1
  33   18   19 ar
  34   18   35 1
  35   19   20 ar
  36   19   22 1
  37   20   21 ar
  38   20   36 1
  39   21   37 1
  40   22   38 1
  41   22   39 1
  42   22   40 1

#	End of record

