#	Name: ASD01912955
#	Creating user name:	WinNT
#	Creation time:	15. 06. 2019 20:00

#	Modifying user name:	WinNT
#	Modification time:	15. 06. 2019 20:00

#	Program:	/corina/corina34_cracker 3.40 0067  02.08.2006

@<TRIPOS>MOLECULE
ASD01912955
  34   36    0    0    0
SMALL
NO_CHARGES


@<TRIPOS>ATOM
   1 C1             0.5487     0.0582     1.4856 C.ar    
   2 C2             0.0041    -0.0373     0.2128 C.ar    
   3 C3             0.6667     0.5642    -0.8523 C.ar    
   4 C4             1.8502     1.2377    -0.5958 C.ar    
   5 C5             2.3301     1.2896     0.6994 C.ar    
   6 N6             1.6773     0.7085     1.6871 N.ar    
   7 O7            -1.1597    -0.7092     0.0097 O.3     
   8 C8            -2.3228    -0.0198     0.1294 C.ar    
   9 C9            -2.3176     1.3560     0.3443 C.ar    
  10 C10           -3.5213     2.0271     0.4610 C.ar    
  11 N11           -4.6665     1.3846     0.3720 N.ar    
  12 C12           -4.7189     0.0732     0.1678 C.ar    
  13 C13           -3.5503    -0.6701     0.0346 C.ar    
  14 C14           -6.0334    -0.6032     0.0757 C.2     
  15 O15           -6.0878    -1.8028    -0.1111 O.2     
  16 S16           -8.6477    -2.2468    -0.1547 S.3     
  17 C17           -8.4026    -0.5229     0.1126 C.2     
  18 N18           -7.1693     0.1117     0.1990 N.am    
  19 C19          -10.3924    -2.0037    -0.0994 C.2     
  20 C20          -10.6272    -0.7057     0.1061 C.2     
  21 N21           -9.5578     0.0600     0.2153 N.2     
  22 C22          -12.0244    -0.1500     0.2064 C.3     
  23 F23          -11.3306    -2.9654    -0.2410 F       
  24 H24            0.0403    -0.4012     2.3203 H       
  25 H25            0.2686     0.5073    -1.8547 H       
  26 H26            2.3916     1.7162    -1.3985 H       
  27 H27            3.2520     1.8131     0.9053 H       
  28 H28           -1.3837     1.8932     0.4192 H       
  29 H29           -3.5215     3.0941     0.6280 H       
  30 H30           -3.5946    -1.7362    -0.1318 H       
  31 H31           -7.1260     1.0692     0.3481 H       
  32 H32          -12.3516    -0.1750     1.2458 H       
  33 H33          -12.0327     0.8792    -0.1525 H       
  34 H34          -12.6994    -0.7523    -0.4016 H       
@<TRIPOS>BOND
   1    1    2 ar
   2    1    6 ar
   3    1   24 1
   4    2    3 ar
   5    2    7 1
   6    3    4 ar
   7    3   25 1
   8    4    5 ar
   9    4   26 1
  10    5    6 ar
  11    5   27 1
  12    7    8 1
  13    8    9 ar
  14    8   13 ar
  15    9   10 ar
  16    9   28 1
  17   10   11 ar
  18   10   29 1
  19   11   12 ar
  20   12   13 ar
  21   12   14 1
  22   13   30 1
  23   14   15 2
  24   14   18 am
  25   16   17 1
  26   16   19 1
  27   17   18 1
  28   17   21 2
  29   18   31 1
  30   19   20 2
  31   19   23 1
  32   20   21 1
  33   20   22 1
  34   22   32 1
  35   22   33 1
  36   22   34 1

#	End of record

