#	Name: ASD09610018
#	Creating user name:	WinNT
#	Creation time:	15. 06. 2019 21:22

#	Modifying user name:	WinNT
#	Modification time:	15. 06. 2019 21:22

#	Program:	/corina/corina34_cracker 3.40 0067  02.08.2006

@<TRIPOS>MOLECULE
ASD09610018
  50   51    0    0    0
SMALL
NO_CHARGES


@<TRIPOS>ATOM
   1 C1            -0.9875    -0.0623     0.5860 C.2     
   2 C2             0.0679    -0.0629    -0.4535 C.2     
   3 O3            -0.7142    -0.3695     1.7295 O.2     
   4 N4            -2.2496     0.2844     0.2647 N.am    
   5 C5            -3.2934     0.2850     1.2927 C.3     
   6 N6            -0.2002     0.3638    -1.6531 N.2     
   7 O7             0.8017     0.3398    -2.6535 O.3     
   8 C8             0.3690     0.8371    -3.9214 C.3     
   9 C9             1.4289    -0.5494    -0.1272 C.ar    
  10 C10            1.6317    -1.8871     0.2117 C.ar    
  11 C11            2.9013    -2.3343     0.5141 C.ar    
  12 C12            3.9723    -1.4587     0.4817 C.ar    
  13 C13            3.7774    -0.1310     0.1463 C.ar    
  14 C14            2.5129     0.3270    -0.1633 C.ar    
  15 C15            0.4664    -2.8419     0.2480 C.3     
  16 O16            0.9436    -4.1670     0.4898 O.3     
  17 N17           -0.0778    -5.1463     0.5429 N.2     
  18 C18            1.6657    -6.7919     0.9482 C.3     
  19 C19            0.2260    -6.3902     0.7566 C.2     
  20 C20           -0.8291    -7.4017     0.8115 C.2     
  21 C21           -2.1168    -7.0424     0.6401 C.2     
  22 C22           -3.1784    -8.0601     0.6953 C.ar    
  23 C23           -4.3032    -7.8604     1.5034 C.ar    
  24 C24           -5.2942    -8.8201     1.5494 C.ar    
  25 C25           -5.1775    -9.9772     0.7997 C.ar    
  26 C26           -4.0686   -10.1827    -0.0020 C.ar    
  27 C27           -3.0713    -9.2304    -0.0644 C.ar    
  28 Cl28          -1.6848    -9.4869    -1.0770 Cl      
  29 Cl29          -4.4515    -6.4101     2.4458 Cl      
  30 H30           -2.4669     0.5335    -0.6472 H       
  31 H31           -3.3936    -0.7172     1.7093 H       
  32 H32           -3.0224     0.9825     2.0852 H       
  33 H33           -4.2408     0.5902     0.8484 H       
  34 H34            1.1934     0.7853    -4.6326 H       
  35 H35           -0.4624     0.2327    -4.2842 H       
  36 H36            0.0459     1.8726    -3.8145 H       
  37 H37            3.0596    -3.3698     0.7770 H       
  38 H38            4.9643    -1.8133     0.7195 H       
  39 H39            4.6172     0.5478     0.1226 H       
  40 H40            2.3626     1.3630    -0.4291 H       
  41 H41           -0.2172    -2.5508     1.0456 H       
  42 H42           -0.0570    -2.8129    -0.7077 H       
  43 H43            1.9204    -6.7375     2.0066 H       
  44 H44            1.8087    -7.8122     0.5921 H       
  45 H45            2.3095    -6.1168     0.3844 H       
  46 H46           -0.5764    -8.4365     0.9893 H       
  47 H47           -2.3696    -6.0075     0.4623 H       
  48 H48           -6.1630    -8.6675     2.1726 H       
  49 H49           -5.9562   -10.7245     0.8408 H       
  50 H50           -3.9852   -11.0886    -0.5840 H       
@<TRIPOS>BOND
   1    1    2 1
   2    1    3 2
   3    1    4 am
   4    2    6 2
   5    2    9 1
   6    4    5 1
   7    4   30 1
   8    5   31 1
   9    5   32 1
  10    5   33 1
  11    6    7 1
  12    7    8 1
  13    8   34 1
  14    8   35 1
  15    8   36 1
  16    9   10 ar
  17    9   14 ar
  18   10   11 ar
  19   10   15 1
  20   11   12 ar
  21   11   37 1
  22   12   13 ar
  23   12   38 1
  24   13   14 ar
  25   13   39 1
  26   14   40 1
  27   15   16 1
  28   15   41 1
  29   15   42 1
  30   16   17 1
  31   17   19 2
  32   18   19 1
  33   18   43 1
  34   18   44 1
  35   18   45 1
  36   19   20 1
  37   20   21 2
  38   20   46 1
  39   21   22 1
  40   21   47 1
  41   22   23 ar
  42   22   27 ar
  43   23   24 ar
  44   23   29 1
  45   24   25 ar
  46   24   48 1
  47   25   26 ar
  48   25   49 1
  49   26   27 ar
  50   26   50 1
  51   27   28 1

#	End of record

