#	Name: ASD06140031
#	Creating user name:	WinNT
#	Creation time:	15. 06. 2019 21:05

#	Modifying user name:	WinNT
#	Modification time:	15. 06. 2019 21:05

#	Program:	/corina/corina34_cracker 3.40 0067  02.08.2006

@<TRIPOS>MOLECULE
ASD06140031
  40   42    0    0    0
SMALL
NO_CHARGES


@<TRIPOS>ATOM
   1 C1            -0.0184     1.5028     0.0103 C.3     
   2 C2             0.0021    -0.0041     0.0020 C.2     
   3 N3             1.3560     2.0099    -0.0001 N.am    
   4 C4             1.9830     2.2520    -1.1604 C.2     
   5 C5             1.9943     2.2406     1.1342 C.2     
   6 C6             3.3202     2.7308     1.0193 C.2     
   7 S7             3.5981     2.8444    -0.7299 S.3     
   8 O8             1.4729     2.0437     2.2172 O.2     
   9 S9             1.3526     2.0331    -2.7369 S.2     
  10 C10            4.1862     3.0462     2.0266 C.2     
  11 C11            5.4783     3.5247     1.7222 C.2     
  12 C12            6.4513     3.8740     2.6417 C.2     
  13 O13            1.0565    -0.5939    -0.0112 O.2     
  14 O14           -1.1511    -0.6910     0.0093 O.3     
  15 C15           -1.0555    -2.1398     0.0006 C.3     
  16 C16           -2.4612    -2.7438     0.0108 C.3     
  17 O17            5.9801     3.7150     0.4839 O.3     
  18 C18            7.2393     4.1797     0.5784 C.2     
  19 C19            7.5665     4.2915     1.9109 C.2     
  20 C20            8.1226     4.5106    -0.5559 C.ar    
  21 C21            8.3025     3.5941    -1.5966 C.ar    
  22 C22            9.1302     3.9108    -2.6549 C.ar    
  23 C23            9.7810     5.1325    -2.6869 C.ar    
  24 C24            9.6067     6.0447    -1.6587 C.ar    
  25 C25            8.7789     5.7436    -0.5982 C.ar    
  26 Cl26           7.4875     2.0618    -1.5574 Cl      
  27 Cl27          10.8206     5.5229    -4.0212 Cl      
  28 H28           -0.5455     1.8639    -0.8728 H       
  29 H29           -0.5286     1.8543     0.9071 H       
  30 H30            3.8824     2.9294     3.0564 H       
  31 H31            6.3652     3.8324     3.7174 H       
  32 H32           -0.5273    -2.4637    -0.8962 H       
  33 H33           -0.5104    -2.4732     0.8837 H       
  34 H34           -2.3894    -3.8314     0.0043 H       
  35 H35           -2.9893    -2.4199     0.9076 H       
  36 H36           -3.0063    -2.4103    -0.8722 H       
  37 H37            8.5067     4.6368     2.3148 H       
  38 H38            9.2707     3.2042    -3.4595 H       
  39 H39           10.1174     6.9958    -1.6901 H       
  40 H40            8.6440     6.4560     0.2022 H       
@<TRIPOS>BOND
   1    1    2 1
   2    1    3 1
   3    1   28 1
   4    1   29 1
   5    2   13 2
   6    2   14 1
   7    3    4 am
   8    3    5 am
   9    4    9 2
  10    4    7 1
  11    5    6 1
  12    5    8 2
  13    6    7 1
  14    6   10 2
  15   10   11 1
  16   10   30 1
  17   11   17 1
  18   11   12 2
  19   12   19 1
  20   12   31 1
  21   14   15 1
  22   15   16 1
  23   15   32 1
  24   15   33 1
  25   16   34 1
  26   16   35 1
  27   16   36 1
  28   17   18 1
  29   18   19 2
  30   18   20 1
  31   19   37 1
  32   20   21 ar
  33   20   25 ar
  34   21   22 ar
  35   21   26 1
  36   22   23 ar
  37   22   38 1
  38   23   24 ar
  39   23   27 1
  40   24   25 ar
  41   24   39 1
  42   25   40 1

#	End of record

