#	Name: ASD01913772
#	Creating user name:	WinNT
#	Creation time:	15. 06. 2019 20:02

#	Modifying user name:	WinNT
#	Modification time:	15. 06. 2019 20:02

#	Program:	/corina/corina34_cracker 3.40 0067  02.08.2006

@<TRIPOS>MOLECULE
ASD01913772
  50   51    0    0    0
SMALL
NO_CHARGES


@<TRIPOS>ATOM
   1 O1            -0.0163     1.3508     0.0095 O.3     
   2 C2             0.0021    -0.0041     0.0020 C.ar    
   3 N3             1.1629    -0.6408    -0.0125 N.ar    
   4 C4             1.2330    -1.9556    -0.0202 C.ar    
   5 C5             0.0719    -2.7293    -0.0137 C.ar    
   6 C6            -1.1744    -2.0856     0.0016 C.ar    
   7 C7            -1.1994    -0.7064     0.0154 C.ar    
   8 C8             0.1538    -4.2032    -0.0234 C.2     
   9 N9             1.3565    -4.8112    -0.0386 N.am    
  10 O10           -0.8637    -4.8686    -0.0177 O.2     
  11 C11            1.2480     2.0168     0.0010 C.3     
  12 C12            1.1122     3.3434    -0.7011 C.ar    
  13 C13            2.1124     3.7824    -1.5473 C.ar    
  14 C14            1.9874     5.0015    -2.1922 C.ar    
  15 C15            0.8602     5.7789    -1.9883 C.ar    
  16 C16           -0.1390     5.3376    -1.1414 C.ar    
  17 C17           -0.0157     4.1180    -0.5025 C.ar    
  18 C18            1.4378    -6.2739    -0.0482 C.3     
  19 C19            2.7655    -6.7069    -0.6732 C.3     
  20 C20            3.9249    -6.1370     0.1465 C.3     
  21 C21            1.7130     2.2467     1.4404 C.3     
  22 F22            2.9649     5.4320    -3.0195 F       
  23 C23            1.3543    -6.7988     1.3865 C.3     
  24 C24            2.8504    -8.2345    -0.6832 C.3     
  25 C25            2.8490    -6.1820    -2.1080 C.3     
  26 H26            2.1983    -2.4397    -0.0320 H       
  27 H27           -2.0916    -2.6557     0.0069 H       
  28 H28           -2.1409    -0.1774     0.0278 H       
  29 H29            2.1684    -4.2803    -0.0432 H       
  30 H30            1.9793     1.4015    -0.5232 H       
  31 H31            2.9915     3.1753    -1.7053 H       
  32 H32            0.7617     6.7299    -2.4905 H       
  33 H33           -1.0185     5.9439    -0.9821 H       
  34 H34           -0.7971     3.7739     0.1588 H       
  35 H35            0.6118    -6.6799    -0.6322 H       
  36 H36            3.8655    -6.5109     1.1687 H       
  37 H37            4.8708    -6.4455    -0.2987 H       
  38 H38            3.8645    -5.0487     0.1537 H       
  39 H39            2.6773     2.7548     1.4339 H       
  40 H40            0.9817     2.8620     1.9645 H       
  41 H41            1.8112     1.2872     1.9481 H       
  42 H42            1.4148    -7.8871     1.3794 H       
  43 H43            2.1803    -6.3928     1.9705 H       
  44 H44            0.4085    -6.4903     1.8318 H       
  45 H45            2.0244    -8.6404    -1.2672 H       
  46 H46            3.7963    -8.5429    -1.1285 H       
  47 H47            2.7909    -8.6084     0.3389 H       
  48 H48            2.7885    -5.0937    -2.1008 H       
  49 H49            3.7949    -6.4904    -2.5532 H       
  50 H50            2.0230    -6.5880    -2.6920 H       
@<TRIPOS>BOND
   1    1    2 1
   2    1   11 1
   3    2    3 ar
   4    2    7 ar
   5    3    4 ar
   6    4    5 ar
   7    4   26 1
   8    5    6 ar
   9    5    8 1
  10    6    7 ar
  11    6   27 1
  12    7   28 1
  13    8    9 am
  14    8   10 2
  15    9   18 1
  16    9   29 1
  17   11   12 1
  18   11   21 1
  19   11   30 1
  20   12   13 ar
  21   12   17 ar
  22   13   14 ar
  23   13   31 1
  24   14   15 ar
  25   14   22 1
  26   15   16 ar
  27   15   32 1
  28   16   17 ar
  29   16   33 1
  30   17   34 1
  31   18   19 1
  32   18   23 1
  33   18   35 1
  34   19   20 1
  35   19   24 1
  36   19   25 1
  37   20   36 1
  38   20   37 1
  39   20   38 1
  40   21   39 1
  41   21   40 1
  42   21   41 1
  43   23   42 1
  44   23   43 1
  45   23   44 1
  46   24   45 1
  47   24   46 1
  48   24   47 1
  49   25   48 1
  50   25   49 1
  51   25   50 1

#	End of record

