#	Name: ASD08170167
#	Creating user name:	WinNT
#	Creation time:	15. 06. 2019 21:17

#	Modifying user name:	WinNT
#	Modification time:	15. 06. 2019 21:17

#	Program:	/corina/corina34_cracker 3.40 0067  02.08.2006

@<TRIPOS>MOLECULE
ASD08170167
  73   74    0    0    0
SMALL
NO_CHARGES


@<TRIPOS>ATOM
   1 Cl1            0.0000     0.0000     0.0000 Cl      
   2 H2             0.0000     1.3700     0.0000 H       
   3 Cl3            5.0000     6.3700     5.0000 Cl      
   4 H4             5.0000     7.7400     5.0000 H       
   5 C5            14.3067    23.6588    13.9917 C.3     
   6 C6            17.1567    26.2478    13.9783 C.3     
   7 C7            17.1360    27.7776    13.9868 C.3     
   8 C8            18.5498    28.2993    13.9761 C.2     
   9 C9            14.3271    22.1520    13.9834 C.2     
  10 S10           19.5394    28.6517    15.3931 S.3     
  11 C11           20.8169    29.1315    14.3574 C.2     
  12 N12           20.4267    28.9983    13.1257 N.2     
  13 N13           19.2584    28.5640    12.9247 N.2     
  14 S14           14.3276    21.1193    12.5533 S.3     
  15 N15           14.3531    21.3826    15.0250 N.2     
  16 N16           14.3673    20.1389    14.8084 N.2     
  17 C17           14.3567    19.7420    13.5716 C.2     
  18 N18           14.3689    18.4185    13.1448 N.am    
  19 C19           14.3944    17.4191    14.0488 C.2     
  20 O20           14.4068    17.6741    15.2345 O.2     
  21 N21           22.0649    29.5883    14.7675 N.am    
  22 C22           22.9895    29.9369    13.8510 C.2     
  23 C23           24.3417    30.4319    14.2953 C.3     
  24 O24           22.7332    29.8523    12.6685 O.2     
  25 C25           14.4077    15.9849    13.5864 C.3     
  26 C26           14.4360    15.0711    14.7844 C.ar    
  27 C27           15.7421    24.1884    13.9808 C.3     
  28 C28           13.2565    14.7188    15.4128 C.ar    
  29 C29           25.1819    30.7518    13.0859 C.ar    
  30 C30           25.0759    31.9887    12.4783 C.ar    
  31 C31           15.7213    25.7182    13.9892 C.3     
  32 C32           25.8466    32.2822    11.3687 C.ar    
  33 C33           26.7235    31.3388    10.8672 C.ar    
  34 C34           26.8302    30.1019    11.4755 C.ar    
  35 C35           26.0628    29.8100    12.5874 C.ar    
  36 C36           13.2824    13.8805    16.5119 C.ar    
  37 C37           14.4879    13.3943    16.9819 C.ar    
  38 C38           15.6677    13.7459    16.3527 C.ar    
  39 C39           15.6413    14.5805    15.2513 C.ar    
  40 C40           24.1198    33.0173    13.0251 C.3     
  41 O41           24.1917    34.2037    12.2319 O.3     
  42 C42           11.9422    15.2490    14.9004 C.3     
  43 O43           10.8775    14.7464    15.7103 O.3     
  44 H44           13.7795    24.0199    13.1086 H       
  45 H45           13.7965    24.0103    14.8885 H       
  46 H46           17.6669    25.8963    13.0816 H       
  47 H47           17.6839    25.8867    14.8614 H       
  48 H48           16.6088    28.1387    13.1037 H       
  49 H49           16.6258    28.1292    14.8836 H       
  50 H50           14.3590    18.2145    12.1966 H       
  51 H51           22.2698    29.6560    15.7132 H       
  52 H52           24.2190    31.3302    14.9004 H       
  53 H53           24.8348    29.6602    14.8865 H       
  54 H54           13.5124    15.7847    12.9977 H       
  55 H55           15.2921    15.8087    12.9741 H       
  56 H56           16.2692    23.8273    14.8639 H       
  57 H57           16.2523    23.8369    13.0840 H       
  58 H58           15.2111    26.0697    14.8860 H       
  59 H59           15.1941    26.0793    13.1061 H       
  60 H60           25.7633    33.2485    10.8936 H       
  61 H61           27.3251    31.5678    10.0000 H       
  62 H62           27.5151    29.3646    11.0834 H       
  63 H63           26.1462    28.8438    13.0625 H       
  64 H64           12.3608    13.6058    17.0035 H       
  65 H65           14.5082    12.7400    17.8409 H       
  66 H66           16.6096    13.3663    16.7201 H       
  67 H67           16.5629    14.8552    14.7597 H       
  68 H68           23.1046    32.6216    12.9957 H       
  69 H69           24.3886    33.2520    14.0551 H       
  70 H70           23.6014    34.9105    12.5269 H       
  71 H71           11.9482    16.3381    14.9431 H       
  72 H72           11.7976    14.9266    13.8693 H       
  73 H73           10.0000    15.0476    15.4376 H       
@<TRIPOS>BOND
   1    1    2 1
   2    3    4 1
   3    5    9 1
   4    5   27 1
   5    5   44 1
   6    5   45 1
   7    6    7 1
   8    6   31 1
   9    6   46 1
  10    6   47 1
  11    7    8 1
  12    7   48 1
  13    7   49 1
  14    8   10 1
  15    8   13 2
  16    9   14 1
  17    9   15 2
  18   10   11 1
  19   11   12 2
  20   11   21 1
  21   12   13 1
  22   14   17 1
  23   15   16 1
  24   16   17 2
  25   17   18 1
  26   18   19 am
  27   18   50 1
  28   19   20 2
  29   19   25 1
  30   21   22 am
  31   21   51 1
  32   22   23 1
  33   22   24 2
  34   23   29 1
  35   23   52 1
  36   23   53 1
  37   25   26 1
  38   25   54 1
  39   25   55 1
  40   26   28 ar
  41   26   39 ar
  42   27   31 1
  43   27   56 1
  44   27   57 1
  45   28   36 ar
  46   28   42 1
  47   29   30 ar
  48   29   35 ar
  49   30   32 ar
  50   30   40 1
  51   31   58 1
  52   31   59 1
  53   32   33 ar
  54   32   60 1
  55   33   34 ar
  56   33   61 1
  57   34   35 ar
  58   34   62 1
  59   35   63 1
  60   36   37 ar
  61   36   64 1
  62   37   38 ar
  63   37   65 1
  64   38   39 ar
  65   38   66 1
  66   39   67 1
  67   40   41 1
  68   40   68 1
  69   40   69 1
  70   41   70 1
  71   42   43 1
  72   42   71 1
  73   42   72 1
  74   43   73 1

#	End of record

