#	Name: ASD03330796
#	Creating user name:	WinNT
#	Creation time:	15. 06. 2019 20:38

#	Modifying user name:	WinNT
#	Modification time:	15. 06. 2019 20:38

#	Program:	/corina/corina34_cracker 3.40 0067  02.08.2006

@<TRIPOS>MOLECULE
ASD03330796
  60   62    0    0    0
SMALL
NO_CHARGES


@<TRIPOS>ATOM
   1 C1             0.1001     1.1136     0.6786 C.2     
   2 N2             0.3153    -0.2252     0.7770 N.pl3   
   3 C3             1.3137     1.7227     0.7828 C.2     
   4 N4             2.2485     0.7577     0.9248 N.2     
   5 C5             1.6590    -0.4148     0.9166 C.2     
   6 C6             2.3381    -1.7233     1.0384 C.ar    
   7 C7             1.5627     3.1747     0.7467 C.2     
   8 O8             0.6335     3.9479     0.6132 O.2     
   9 C9             3.0678     5.0893     0.8258 C.3     
  10 N10            2.8202     3.6458     0.8617 N.am    
  11 C11            4.5001     5.3495     0.3550 C.3     
  12 C12            2.8801     5.6656     2.2055 C.2     
  13 O13            2.5700     4.9418     3.1280 O.2     
  14 C14           -0.7249    -1.2572     0.7503 C.3     
  15 C15           -1.6803    -0.9774    -0.4140 C.3     
  16 C16           -2.7880    -0.0337     0.0433 C.3     
  17 N17           -2.2908     0.9204     1.0365 N.3     
  18 C18           -1.2368     1.7774     0.4734 C.3     
  19 C19            3.6380    -1.8847     0.5572 C.ar    
  20 C20            4.2674    -3.1083     0.6740 C.ar    
  21 C21           -3.3880     1.7277     1.5863 C.3     
  22 N22            3.0567     6.9853     2.4144 N.am    
  23 C23            3.6081    -4.1756     1.2683 C.ar    
  24 C24            4.6449     4.9118    -1.1039 C.3     
  25 C25            1.6831    -2.7983     1.6398 C.ar    
  26 C26            2.3179    -4.0186     1.7468 C.ar    
  27 C27            3.5861     5.6157    -1.9550 C.3     
  28 C28            6.0388     5.2849    -1.6124 C.3     
  29 C29            4.4544     3.3969    -1.2031 C.3     
  30 F30            4.2268    -5.3715     1.3798 F       
  31 F31            5.5258    -3.2670     0.2089 F       
  32 H32            2.3674     5.5610     0.1366 H       
  33 H33            3.5614     3.0291     0.9682 H       
  34 H34            4.7226     6.4133     0.4389 H       
  35 H35            5.1950     4.7830     0.9749 H       
  36 H36           -0.2638    -2.2357     0.6161 H       
  37 H37           -1.2792    -1.2401     1.6887 H       
  38 H38           -1.1281    -0.5179    -1.2337 H       
  39 H39           -2.1204    -1.9145    -0.7550 H       
  40 H40           -3.1699     0.5136    -0.8185 H       
  41 H41           -3.5969    -0.6178     0.4821 H       
  42 H42           -1.2450     2.7439     0.9773 H       
  43 H43           -1.4134     1.9194    -0.5928 H       
  44 H44            4.1507    -1.0545     0.0942 H       
  45 H45           -4.1164     1.0730     2.0647 H       
  46 H46           -2.9909     2.4278     2.3213 H       
  47 H47           -3.8707     2.2813     0.7809 H       
  48 H48            3.3047     7.5642     1.6766 H       
  49 H49            2.9359     7.3563     3.3024 H       
  50 H50            0.6785    -2.6766     2.0172 H       
  51 H51            1.8108    -4.8509     2.2120 H       
  52 H52            3.7218     6.6949    -1.8844 H       
  53 H53            3.6893     5.3039    -2.9944 H       
  54 H54            2.5931     5.3499    -1.5928 H       
  55 H55            6.7931     4.7834    -1.0061 H       
  56 H56            6.1419     4.9731    -2.6518 H       
  57 H57            6.1745     6.3642    -1.5417 H       
  58 H58            3.4171     3.1459    -0.9820 H       
  59 H59            4.7015     3.0649    -2.2115 H       
  60 H60            5.1090     2.9007    -0.4866 H       
@<TRIPOS>BOND
   1    1    2 1
   2    1    3 2
   3    1   18 1
   4    2   14 1
   5    2    5 1
   6    3    4 1
   7    3    7 1
   8    4    5 2
   9    5    6 1
  10    6   25 ar
  11    6   19 ar
  12    7    8 2
  13    7   10 am
  14    9   10 1
  15    9   11 1
  16    9   12 1
  17    9   32 1
  18   10   33 1
  19   11   24 1
  20   11   34 1
  21   11   35 1
  22   12   13 2
  23   12   22 am
  24   14   15 1
  25   14   36 1
  26   14   37 1
  27   15   16 1
  28   15   38 1
  29   15   39 1
  30   16   17 1
  31   16   40 1
  32   16   41 1
  33   17   18 1
  34   17   21 1
  35   18   42 1
  36   18   43 1
  37   19   20 ar
  38   19   44 1
  39   20   31 1
  40   20   23 ar
  41   21   45 1
  42   21   46 1
  43   21   47 1
  44   22   48 1
  45   22   49 1
  46   23   30 1
  47   23   26 ar
  48   24   27 1
  49   24   28 1
  50   24   29 1
  51   25   26 ar
  52   25   50 1
  53   26   51 1
  54   27   52 1
  55   27   53 1
  56   27   54 1
  57   28   55 1
  58   28   56 1
  59   28   57 1
  60   29   58 1
  61   29   59 1
  62   29   60 1

#	End of record

