#	Name: ASD01518001
#	Creating user name:	WinNT
#	Creation time:	15. 06. 2019 19:21

#	Modifying user name:	WinNT
#	Modification time:	15. 06. 2019 19:21

#	Program:	/corina/corina34_cracker 3.40 0067  02.08.2006

@<TRIPOS>MOLECULE
ASD01518001
  22   21    0    0    0
SMALL
NO_CHARGES


@<TRIPOS>ATOM
   1 C1            -0.0184     1.5028     0.0103 C.2     
   2 C2             0.0021    -0.0041     0.0020 C.3     
   3 C3            -0.2279    -0.5251     1.4221 C.3     
   4 C4            -0.3315    -2.0513     1.3948 C.3     
   5 O5             1.0197     2.1211     0.0037 O.2     
   6 O6            -1.1898     2.1580     0.0194 O.3     
   7 Si7           -0.6116    -2.6857     3.1240 Si      
   8 C8            -0.7377    -4.5441     3.0908 C.3     
   9 N9             1.3055    -0.4734    -0.4867 N.3     
  10 H10           -0.7864    -0.3745    -0.6531 H       
  11 H11            0.6068    -0.2288     2.0574 H       
  12 H12           -1.1526    -0.1051     1.8179 H       
  13 H13           -1.1662    -2.3475     0.7595 H       
  14 H14            0.5932    -2.4712     0.9991 H       
  15 H15           -1.1523     3.1243     0.0245 H       
  16 H16            0.5256    -2.2821     3.9895 H       
  17 H17           -1.8714    -2.1135     3.6632 H       
  18 H18           -1.5724    -4.8403     2.4555 H       
  19 H19            0.1870    -4.9640     2.6950 H       
  20 H20           -0.9016    -4.9153     4.1025 H       
  21 H21            2.0536    -0.1430     0.1043 H       
  22 H22            1.3222    -1.4794    -0.5627 H       
@<TRIPOS>BOND
   1    1    2 1
   2    1    5 2
   3    1    6 1
   4    2    3 1
   5    2    9 1
   6    2   10 1
   7    3    4 1
   8    3   11 1
   9    3   12 1
  10    4    7 1
  11    4   13 1
  12    4   14 1
  13    6   15 1
  14    7    8 1
  15    7   16 1
  16    7   17 1
  17    8   18 1
  18    8   19 1
  19    8   20 1
  20    9   21 1
  21    9   22 1

#	End of record

