#	Name: ASD01814547
#	Creating user name:	WinNT
#	Creation time:	15. 06. 2019 19:32

#	Modifying user name:	WinNT
#	Modification time:	15. 06. 2019 19:32

#	Program:	/corina/corina34_cracker 3.40 0067  02.08.2006

@<TRIPOS>MOLECULE
ASD01814547
  57   61    0    0    0
SMALL
NO_CHARGES


@<TRIPOS>ATOM
   1 N1            -0.2860     2.5177    -4.1506 N.2     
   2 C2            -0.3090     1.5415    -5.0272 C.2     
   3 C3             0.8621     1.1737    -5.7072 C.2     
   4 C4             2.0175     1.8357    -5.4506 C.2     
   5 N5             2.0135     2.8478    -4.5334 N.pl3   
   6 C6             0.8495     3.1785    -3.8890 C.2     
   7 N7             3.0170     3.6991    -4.0594 N.2     
   8 C8             2.4966     4.5156    -3.1655 C.2     
   9 C9             1.1490     4.2278    -3.0283 C.2     
  10 C10            2.8450     5.6539    -2.2382 C.3     
  11 N11            1.6226     6.0403    -1.5267 N.am    
  12 C12            0.5518     5.1608    -2.0064 C.3     
  13 C13            1.5055     7.0180    -0.6065 C.2     
  14 O14            0.4119     7.3019    -0.1568 O.2     
  15 C15            2.7031     7.7433    -0.1451 C.ar    
  16 C16            2.6570     9.1324     0.0426 C.ar    
  17 C17            3.8883     7.0494     0.1130 C.ar    
  18 C18            5.0041     7.7317     0.5443 C.ar    
  19 C19            4.9571     9.1072     0.7241 C.ar    
  20 C20            3.7877     9.8049     0.4769 C.ar    
  21 O21            1.5101     9.8149    -0.2006 O.3     
  22 Cl22           0.8322    -0.1181    -6.8666 Cl      
  23 F23            6.0568     9.7676     1.1480 F       
  24 C24            3.2887     1.4594    -6.1672 C.3     
  25 C25           -1.5983     0.8121    -5.3044 C.3     
  26 C26            1.5721    11.2398    -0.1130 C.3     
  27 C27            0.4680    11.9546    -0.9099 C.3     
  28 C28            0.9151    11.8082     1.1559 C.3     
  29 C29           -0.3981    11.8611     0.3573 C.3     
  30 N30           -1.1955    13.0676     0.6154 N.3     
  31 C31           -2.2687    13.2115    -0.3773 C.3     
  32 C32           -1.7386    13.0576     1.9803 C.3     
  33 H33            3.6016     5.3299    -1.5236 H       
  34 H34            3.2191     6.4994    -2.8156 H       
  35 H35           -0.2375     5.7557    -2.4659 H       
  36 H36            0.1456     4.5860    -1.1741 H       
  37 H37            3.9291     5.9791    -0.0252 H       
  38 H38            5.9193     7.1942     0.7438 H       
  39 H39            3.7567    10.8746     0.6224 H       
  40 H40            3.0891     0.6359    -6.8529 H       
  41 H41            3.6573     2.3181    -6.7283 H       
  42 H42            4.0391     1.1520    -5.4388 H       
  43 H43           -2.3932     1.2322    -4.6881 H       
  44 H44           -1.8585     0.9215    -6.3572 H       
  45 H45           -1.4757    -0.2449    -5.0683 H       
  46 H46            2.5711    11.6325    -0.3024 H       
  47 H47            0.7235    12.9766    -1.1898 H       
  48 H48            0.0840    11.3693    -1.7454 H       
  49 H49            0.8919    11.1047     1.9881 H       
  50 H50            1.2927    12.7901     1.4408 H       
  51 H51           -0.9840    10.9440     0.4191 H       
  52 H52           -2.9250    12.3424    -0.3315 H       
  53 H53           -2.8435    14.1125    -0.1628 H       
  54 H54           -1.8341    13.2865    -1.3740 H       
  55 H55           -0.9215    12.9670     2.6959 H       
  56 H56           -2.2800    13.9859     2.1626 H       
  57 H57           -2.4175    12.2126     2.0950 H       
@<TRIPOS>BOND
   1    1    2 2
   2    1    6 1
   3    2    3 1
   4    2   25 1
   5    3    4 2
   6    3   22 1
   7    4    5 1
   8    4   24 1
   9    5    7 1
  10    5    6 1
  11    6    9 2
  12    7    8 2
  13    8   10 1
  14    8    9 1
  15    9   12 1
  16   10   11 1
  17   10   33 1
  18   10   34 1
  19   11   12 1
  20   11   13 am
  21   12   35 1
  22   12   36 1
  23   13   14 2
  24   13   15 1
  25   15   17 ar
  26   15   16 ar
  27   16   20 ar
  28   16   21 1
  29   17   18 ar
  30   17   37 1
  31   18   19 ar
  32   18   38 1
  33   19   20 ar
  34   19   23 1
  35   20   39 1
  36   21   26 1
  37   24   40 1
  38   24   41 1
  39   24   42 1
  40   25   43 1
  41   25   44 1
  42   25   45 1
  43   26   27 1
  44   26   28 1
  45   26   46 1
  46   27   29 1
  47   27   47 1
  48   27   48 1
  49   28   29 1
  50   28   49 1
  51   28   50 1
  52   29   30 1
  53   29   51 1
  54   30   31 1
  55   30   32 1
  56   31   52 1
  57   31   53 1
  58   31   54 1
  59   32   55 1
  60   32   56 1
  61   32   57 1

#	End of record

