#	Name: ASD01900911
#	Creating user name:	WinNT
#	Creation time:	15. 06. 2019 19:52

#	Modifying user name:	WinNT
#	Modification time:	15. 06. 2019 19:52

#	Program:	/corina/corina34_cracker 3.40 0067  02.08.2006

@<TRIPOS>MOLECULE
ASD01900911
  52   54    0    0    0
SMALL
NO_CHARGES


@<TRIPOS>ATOM
   1 C1            -1.0529     0.5356    -0.1978 C.ar    
   2 C2             0.3004     0.2435    -0.0403 C.ar    
   3 C3             0.7249    -1.0694    -0.1683 C.ar    
   4 C4            -0.2190    -2.0451    -0.4495 C.ar    
   5 C5            -1.5486    -1.6828    -0.5932 C.ar    
   6 N6            -1.9244    -0.4287    -0.4666 N.ar    
   7 C7            -1.5237     1.9329    -0.0580 C.2     
   8 O8            -0.7308     2.8191     0.1931 O.2     
   9 N9            -2.8315     2.2217    -0.2091 N.am    
  10 S10           -4.8972     4.0392    -0.2435 S.3     
  11 C11           -3.2729     3.5319    -0.0780 C.2     
  12 N12           -2.5134     4.5483     0.1884 N.2     
  13 C13           -3.1017     5.7263     0.2784 C.2     
  14 C14           -4.4210     5.7045     0.0786 C.2     
  15 S15           -5.4984     7.0978     0.1282 S.o2    
  16 O16           -4.7019     8.1739    -0.3481 O.2     
  17 O17           -6.6543     6.6724    -0.5804 O.2     
  18 C18           -5.8756     7.3158     1.8891 C.3     
  19 C19           -6.8011     8.4924     2.0627 C.ar    
  20 C20           -8.1704     8.3055     2.0298 C.ar    
  21 C21           -9.0193     9.3848     2.1890 C.ar    
  22 C22           -8.4990    10.6509     2.3814 C.ar    
  23 C23           -7.1298    10.8377     2.4152 C.ar    
  24 C24           -6.2808     9.7578     2.2603 C.ar    
  25 C25           -4.7881     9.9606     2.3023 C.3     
  26 C26           -9.4245    11.8277     2.5539 C.3     
  27 C27           -8.7376     6.9252     1.8200 C.3     
  28 C28           -2.3449     6.9935     0.5827 C.3     
  29 C29           -1.7595     7.5613    -0.7118 C.3     
  30 H30            1.0085     1.0292     0.1781 H       
  31 H31            1.7673    -1.3266    -0.0521 H       
  32 H32            0.0793    -3.0777    -0.5558 H       
  33 H33           -2.2864    -2.4404    -0.8123 H       
  34 H34           -3.4643     1.5145    -0.4095 H       
  35 H35           -6.3566     6.4157     2.2718 H       
  36 H36           -4.9519     7.4960     2.4390 H       
  37 H37          -10.0891     9.2388     2.1626 H       
  38 H38           -6.7232    11.8270     2.5652 H       
  39 H39           -4.4209    10.1652     1.2966 H       
  40 H40           -4.5541    10.8032     2.9529 H       
  41 H41           -4.3098     9.0602     2.6876 H       
  42 H42           -9.6522    11.9588     3.6118 H       
  43 H43           -8.9430    12.7277     2.1717 H       
  44 H44          -10.3477    11.6476     2.0032 H       
  45 H45           -8.8778     6.4394     2.7857 H       
  46 H46           -9.6972     7.0006     1.3085 H       
  47 H47           -8.0481     6.3372     1.2142 H       
  48 H48           -3.0220     7.7235     1.0261 H       
  49 H49           -1.5374     6.7755     1.2817 H       
  50 H50           -1.2121     8.4778    -0.4917 H       
  51 H51           -1.0823     6.8313    -1.1552 H       
  52 H52           -2.5670     7.7793    -1.4107 H       
@<TRIPOS>BOND
   1    1    2 ar
   2    1    6 ar
   3    1    7 1
   4    2    3 ar
   5    2   30 1
   6    3    4 ar
   7    3   31 1
   8    4    5 ar
   9    4   32 1
  10    5    6 ar
  11    5   33 1
  12    7    8 2
  13    7    9 am
  14    9   11 1
  15    9   34 1
  16   10   11 1
  17   10   14 1
  18   11   12 2
  19   12   13 1
  20   13   14 2
  21   13   28 1
  22   14   15 1
  23   15   16 2
  24   15   17 2
  25   15   18 1
  26   18   19 1
  27   18   35 1
  28   18   36 1
  29   19   20 ar
  30   19   24 ar
  31   20   21 ar
  32   20   27 1
  33   21   22 ar
  34   21   37 1
  35   22   23 ar
  36   22   26 1
  37   23   24 ar
  38   23   38 1
  39   24   25 1
  40   25   39 1
  41   25   40 1
  42   25   41 1
  43   26   42 1
  44   26   43 1
  45   26   44 1
  46   27   45 1
  47   27   46 1
  48   27   47 1
  49   28   29 1
  50   28   48 1
  51   28   49 1
  52   29   50 1
  53   29   51 1
  54   29   52 1

#	End of record

