#	Name: ASD01150388
#	Creating user name:	WinNT
#	Creation time:	15. 06. 2019 19:04

#	Modifying user name:	WinNT
#	Modification time:	15. 06. 2019 19:04

#	Program:	/corina/corina34_cracker 3.40 0067  02.08.2006

@<TRIPOS>MOLECULE
ASD01150388
  42   45    0    0    0
SMALL
NO_CHARGES


@<TRIPOS>ATOM
   1 C1             0.3804     1.5257     0.7458 C.ar    
   2 C2             0.4560     0.1761     1.0298 C.ar    
   3 C3             1.2861    -0.6435     0.2891 C.ar    
   4 C4             2.0476    -0.1122    -0.7441 C.ar    
   5 C5             1.9737     1.2431    -1.0324 C.ar    
   6 C6             1.1392     2.0635    -0.2868 C.ar    
   7 N7             1.0618     3.4311    -0.5743 N.am    
   8 C8            -0.1429     4.0149    -0.7032 C.2     
   9 N9            -0.2509     5.3282    -0.9790 N.am    
  10 C10            0.8590     6.0799    -1.1311 C.2     
  11 C11            2.1740     5.4484    -0.9916 C.2     
  12 N12            2.2393     4.1744    -0.7183 N.2     
  13 O13            0.7693     7.2677    -1.3813 O.2     
  14 C14           -1.5745     5.9413    -1.1147 C.3     
  15 O15           -1.1496     3.3465    -0.5689 O.2     
  16 C16           -2.0359     6.4429     0.2294 C.ar    
  17 C17           -1.7190     7.7528     0.6113 C.ar    
  18 C18           -2.1044     8.2648     1.8063 C.ar    
  19 C19           -2.8454     7.4623     2.6954 C.ar    
  20 C20           -3.1812     6.0742     2.2908 C.ar    
  21 C21           -2.7502     5.6148     1.0311 C.ar    
  22 N22            2.8886    -0.9427    -1.4930 N.am    
  23 C23            2.5154    -2.2084    -1.7675 C.2     
  24 O24            1.4908    -2.6543    -1.2960 O.2     
  25 C25            3.3714    -3.0695    -2.6601 C.3     
  26 N26           -3.3884     7.5568     3.8840 N.2     
  27 O27           -3.9271     6.5035     4.1595 O.3     
  28 N28           -3.8552     5.6272     3.3215 N.2     
  29 H29           -0.2724     2.1629     1.3239 H       
  30 H30           -0.1348    -0.2394     1.8328 H       
  31 H31            1.3432    -1.6983     0.5139 H       
  32 H32            2.5650     1.6587    -1.8349 H       
  33 H33            3.0762     6.0302    -1.1094 H       
  34 H34           -1.5187     6.7753    -1.8142 H       
  35 H35           -2.2815     5.2005    -1.4882 H       
  36 H36           -1.1507     8.3731    -0.0659 H       
  37 H37           -1.8453     9.2785     2.0739 H       
  38 H38           -2.9798     4.6096     0.7098 H       
  39 H39            3.7401    -0.6076    -1.8146 H       
  40 H40            4.0998    -3.6090    -2.0547 H       
  41 H41            2.7404    -3.7827    -3.1906 H       
  42 H42            3.8931    -2.4398    -3.3808 H       
@<TRIPOS>BOND
   1    1    2 ar
   2    1    6 ar
   3    1   29 1
   4    2    3 ar
   5    2   30 1
   6    3    4 ar
   7    3   31 1
   8    4    5 ar
   9    4   22 1
  10    5    6 ar
  11    5   32 1
  12    6    7 1
  13    7    8 am
  14    7   12 1
  15    8    9 am
  16    8   15 2
  17    9   10 am
  18    9   14 1
  19   10   11 1
  20   10   13 2
  21   11   12 2
  22   11   33 1
  23   14   16 1
  24   14   34 1
  25   14   35 1
  26   16   17 ar
  27   16   21 ar
  28   17   18 ar
  29   17   36 1
  30   18   19 ar
  31   18   37 1
  32   19   20 ar
  33   19   26 2
  34   20   21 ar
  35   20   28 2
  36   21   38 1
  37   22   23 am
  38   22   39 1
  39   23   24 2
  40   23   25 1
  41   25   40 1
  42   25   41 1
  43   25   42 1
  44   26   27 1
  45   27   28 1

#	End of record

