#	Name: ASD00122024
#	Creating user name:	WinNT
#	Creation time:	15. 06. 2019 18:31

#	Modifying user name:	WinNT
#	Modification time:	15. 06. 2019 18:31

#	Program:	/corina/corina34_cracker 3.40 0067  02.08.2006

@<TRIPOS>MOLECULE
ASD00122024
  31   31    0    0    0
SMALL
NO_CHARGES


@<TRIPOS>ATOM
   1 C1            -0.0167     1.3823     0.0096 C.ar    
   2 C2             0.0021    -0.0041     0.0020 C.ar    
   3 C3             1.2093    -0.6860    -0.0127 C.ar    
   4 C4             2.3978     0.0120    -0.0203 C.ar    
   5 C5             2.3847     1.4084    -0.0131 C.ar    
   6 C6             1.1660     2.0901     0.0022 C.ar    
   7 C7             3.6554     2.1617    -0.0207 C.2     
   8 N8             3.6399     3.5094    -0.0137 N.am    
   9 O9             4.7151     1.5660    -0.0332 O.2     
  10 C10            4.9001     4.2564    -0.0213 C.3     
  11 C11            4.6668     5.6441    -0.6218 C.3     
  12 C12            5.4158     4.4011     1.4119 C.3     
  13 C13            5.7672     3.0202     1.9694 C.3     
  14 C14            4.2710     5.5032    -2.0930 C.3     
  15 F15           -1.1600    -0.6930     0.0094 F       
  16 H16           -0.9598     1.9086     0.0170 H       
  17 H17            1.2183    -1.7659    -0.0179 H       
  18 H18            3.3376    -0.5201    -0.0314 H       
  19 H19            1.1502     3.1700     0.0074 H       
  20 H20            2.7944     3.9846    -0.0038 H       
  21 H21            5.6366     3.7205    -0.6200 H       
  22 H22            3.8672     6.1461    -0.0770 H       
  23 H23            5.5820     6.2313    -0.5464 H       
  24 H24            6.3049     5.0317     1.4163 H       
  25 H25            4.6437     4.8573     2.0315 H       
  26 H26            6.5392     2.5640     1.3498 H       
  27 H27            6.1345     3.1233     2.9904 H       
  28 H28            4.8781     2.3897     1.9650 H       
  29 H29            5.0706     5.0012    -2.6379 H       
  30 H30            3.3557     4.9161    -2.1684 H       
  31 H31            4.1048     6.4918    -2.5209 H       
@<TRIPOS>BOND
   1    1    2 ar
   2    1    6 ar
   3    1   16 1
   4    2    3 ar
   5    2   15 1
   6    3    4 ar
   7    3   17 1
   8    4    5 ar
   9    4   18 1
  10    5    6 ar
  11    5    7 1
  12    6   19 1
  13    7    8 am
  14    7    9 2
  15    8   10 1
  16    8   20 1
  17   10   11 1
  18   10   12 1
  19   10   21 1
  20   11   14 1
  21   11   22 1
  22   11   23 1
  23   12   13 1
  24   12   24 1
  25   12   25 1
  26   13   26 1
  27   13   27 1
  28   13   28 1
  29   14   29 1
  30   14   30 1
  31   14   31 1

#	End of record

