#	Name: ASD03092054
#	Creating user name:	WinNT
#	Creation time:	15. 06. 2019 20:31

#	Modifying user name:	WinNT
#	Modification time:	15. 06. 2019 20:31

#	Program:	/corina/corina34_cracker 3.40 0067  02.08.2006

@<TRIPOS>MOLECULE
ASD03092054
  51   54    0    0    0
SMALL
NO_CHARGES


@<TRIPOS>ATOM
   1 N1             0.1340     1.3461     0.0416 N.am    
   2 C2            -0.0034    -0.0168    -0.0102 C.2     
   3 C3            -1.3384    -0.2898    -0.0519 C.2     
   4 C4            -2.0281     0.9330    -0.0250 C.2     
   5 N5            -1.1499     1.9059     0.0359 N.2     
   6 N6            -3.4168     1.0875    -0.0533 N.pl3   
   7 C7            -3.9817     2.3563     0.0977 C.ar    
   8 C8            -5.2378     2.6261    -0.4315 C.ar    
   9 C9            -5.7961     3.8809    -0.2821 C.ar    
  10 C10           -5.1077     4.8704     0.3935 C.ar    
  11 C11           -3.2911     3.3479     0.7817 C.ar    
  12 C12            1.0940    -1.0080    -0.0190 C.ar    
  13 C13            1.2966     2.0258     0.0944 C.2     
  14 C14            0.9728    -2.2214     0.6677 C.ar    
  15 C15            2.0212    -3.1172     0.6327 C.ar    
  16 N16            3.1252    -2.8424    -0.0354 N.ar    
  17 C17            3.2806    -1.7107    -0.6960 C.ar    
  18 C18            2.2808    -0.7611    -0.7193 C.ar    
  19 C19            4.5658    -1.4551    -1.4405 C.3     
  20 N20            1.2939     3.3719     0.0270 N.am    
  21 O21            2.3473     1.4250     0.2026 O.2     
  22 C22            2.5577     4.1107     0.0844 C.3     
  23 C23            2.5942     5.4989    -0.5580 C.3     
  24 C24           -3.8524     4.6067     0.9243 C.ar    
  25 C25            2.6060     5.3605     0.9657 C.3     
  26 O26           -3.1766     5.5812     1.5880 O.3     
  27 C27           -1.8901     5.2396     2.1079 C.3     
  28 C28           -7.1584     4.1712    -0.8573 C.3     
  29 F29           -8.1394     3.8774     0.0958 F       
  30 F30           -7.2383     5.5234    -1.2072 F       
  31 F31           -7.3621     3.3824    -1.9946 F       
  32 H32           -1.7857    -1.2717    -0.0981 H       
  33 H33           -3.9885     0.3138    -0.1777 H       
  34 H34           -5.7778     1.8546    -0.9603 H       
  35 H35           -5.5467     5.8504     0.5083 H       
  36 H36           -2.3165     3.1397     1.1979 H       
  37 H37            0.0721    -2.4528     1.2169 H       
  38 H38            1.9374    -4.0561     1.1598 H       
  39 H39            2.4148     0.1628    -1.2623 H       
  40 H40            4.4754    -1.8291    -2.4603 H       
  41 H41            4.7659    -0.3839    -1.4627 H       
  42 H42            5.3854    -1.9675    -0.9368 H       
  43 H43            0.4552     3.8515    -0.0594 H       
  44 H44            3.4606     3.5033     0.0219 H       
  45 H45            3.5213     5.8049    -1.0427 H       
  46 H46            1.6780     5.8624    -1.0232 H       
  47 H47            1.6975     5.6329     1.5029 H       
  48 H48            3.5408     5.5754     1.4834 H       
  49 H49           -1.9913     4.4183     2.8173 H       
  50 H50           -1.2369     4.9351     1.2902 H       
  51 H51           -1.4608     6.1050     2.6129 H       
@<TRIPOS>BOND
   1    1    2 1
   2    1   13 am
   3    1    5 1
   4    2    3 2
   5    2   12 1
   6    3    4 1
   7    3   32 1
   8    4    5 2
   9    4    6 1
  10    6    7 1
  11    6   33 1
  12    7    8 ar
  13    7   11 ar
  14    8    9 ar
  15    8   34 1
  16    9   10 ar
  17    9   28 1
  18   10   24 ar
  19   10   35 1
  20   11   24 ar
  21   11   36 1
  22   12   14 ar
  23   12   18 ar
  24   13   20 am
  25   13   21 2
  26   14   15 ar
  27   14   37 1
  28   15   16 ar
  29   15   38 1
  30   16   17 ar
  31   17   18 ar
  32   17   19 1
  33   18   39 1
  34   19   40 1
  35   19   41 1
  36   19   42 1
  37   20   22 1
  38   20   43 1
  39   22   23 1
  40   22   25 1
  41   22   44 1
  42   23   25 1
  43   23   45 1
  44   23   46 1
  45   24   26 1
  46   25   47 1
  47   25   48 1
  48   26   27 1
  49   27   49 1
  50   27   50 1
  51   27   51 1
  52   28   29 1
  53   28   30 1
  54   28   31 1

#	End of record

