#	Name: ASD03331361
#	Creating user name:	WinNT
#	Creation time:	15. 06. 2019 20:39

#	Modifying user name:	WinNT
#	Modification time:	15. 06. 2019 20:39

#	Program:	/corina/corina34_cracker 3.40 0067  02.08.2006

@<TRIPOS>MOLECULE
ASD03331361
  43   45    0    0    0
SMALL
NO_CHARGES


@<TRIPOS>ATOM
   1 C1            -0.0624     1.5008    -0.1601 C.3     
   2 C2            -0.0169    -0.0063    -0.0719 C.2     
   3 C3             1.0849    -0.7451    -0.3496 C.2     
   4 C4             2.4138    -0.1733    -0.7747 C.3     
   5 C5             2.1995     1.2640    -1.2655 C.3     
   6 N6             1.3254     1.9717    -0.3188 N.am    
   7 N7            -0.5088    -2.1548     0.2121 N.2     
   8 N8            -1.0066    -0.8449     0.2781 N.pl3   
   9 C9             0.7525    -2.0966    -0.1669 C.2     
  10 C10            1.7820     3.0251     0.3871 C.2     
  11 O11            2.9288     3.4007     0.2446 O.2     
  12 O12            0.9676     3.6611     1.2501 O.3     
  13 C13            1.6599    -3.2543    -0.3648 C.ar    
  14 C14            2.9829    -3.1866     0.0672 C.ar    
  15 C15            3.8239    -4.2667    -0.1192 C.ar    
  16 C16            3.3517    -5.4169    -0.7356 C.ar    
  17 C17            2.0374    -5.4864    -1.1656 C.ar    
  18 C18            1.1895    -4.4134    -0.9777 C.ar    
  19 F19            4.1765    -6.4714    -0.9169 F       
  20 F20            5.1072    -4.2030     0.2984 F       
  21 C21            1.5268     4.7873     1.9763 C.3     
  22 C22            1.9887     5.8558     0.9833 C.3     
  23 C23            0.4608     5.3776     2.9015 C.3     
  24 C24            2.7202     4.3151     2.8092 C.3     
  25 H25           -0.6578     1.8041    -1.0213 H       
  26 H26           -0.4920     1.9131     0.7529 H       
  27 H27            3.0988    -0.1714     0.0732 H       
  28 H28            2.8298    -0.7766    -1.5816 H       
  29 H29            3.1602     1.7752    -1.3265 H       
  30 H30            1.7316     1.2469    -2.2498 H       
  31 H31           -1.9073    -0.5894     0.5318 H       
  32 H32            3.3504    -2.2913     0.5465 H       
  33 H33            1.6738    -6.3833    -1.6448 H       
  34 H34            0.1633    -4.4710    -1.3094 H       
  35 H35            1.1385     6.1921     0.3899 H       
  36 H36            2.4085     6.7011     1.5285 H       
  37 H37            2.7481     5.4352     0.3242 H       
  38 H38            0.1317     4.6164     3.6089 H       
  39 H39            0.8806     6.2230     3.4466 H       
  40 H40           -0.3894     5.7140     2.3081 H       
  41 H41            3.4797     3.8945     2.1500 H       
  42 H42            3.1400     5.1605     3.3543 H       
  43 H43            2.3912     3.5539     3.5166 H       
@<TRIPOS>BOND
   1    1    2 1
   2    1    6 1
   3    1   25 1
   4    1   26 1
   5    2    3 2
   6    2    8 1
   7    3    4 1
   8    3    9 1
   9    4    5 1
  10    4   27 1
  11    4   28 1
  12    5    6 1
  13    5   29 1
  14    5   30 1
  15    6   10 am
  16    7    8 1
  17    7    9 2
  18    8   31 1
  19    9   13 1
  20   10   11 2
  21   10   12 1
  22   12   21 1
  23   13   14 ar
  24   13   18 ar
  25   14   15 ar
  26   14   32 1
  27   15   16 ar
  28   15   20 1
  29   16   17 ar
  30   16   19 1
  31   17   18 ar
  32   17   33 1
  33   18   34 1
  34   21   22 1
  35   21   24 1
  36   21   23 1
  37   22   35 1
  38   22   36 1
  39   22   37 1
  40   23   38 1
  41   23   39 1
  42   23   40 1
  43   24   41 1
  44   24   42 1
  45   24   43 1

#	End of record

