#	Name: ASD04590961
#	Creating user name:	WinNT
#	Creation time:	15. 06. 2019 20:51

#	Modifying user name:	WinNT
#	Modification time:	15. 06. 2019 20:51

#	Program:	/corina/corina34_cracker 3.40 0067  02.08.2006

@<TRIPOS>MOLECULE
ASD04590961
  57   61    0    0    0
SMALL
NO_CHARGES


@<TRIPOS>ATOM
   1 N1            -0.0171     1.3235    -0.0119 N.ar    
   2 C2             0.0017    -0.0035    -0.0051 C.ar    
   3 N3             1.1296    -0.6948    -0.0122 N.ar    
   4 C4             2.3050    -0.0726    -0.0266 C.ar    
   5 C5             2.3190     1.3364    -0.0341 C.ar    
   6 C6             1.1070     2.0203    -0.0261 C.ar    
   7 N7             3.6031    -0.5195    -0.0374 N.pl3   
   8 C8             4.4824     0.5494    -0.0518 C.ar    
   9 C9             3.7312     1.7384    -0.0504 C.ar    
  10 C10            5.8681     0.6417    -0.0666 C.ar    
  11 N11            6.4613     1.8180    -0.0786 N.ar    
  12 C12            5.7850     2.9532    -0.0777 C.ar    
  13 C13            4.4064     2.9584    -0.0635 C.ar    
  14 N14           -1.2019    -0.6887     0.0103 N.pl3   
  15 C15           -2.4019     0.0120     0.1313 C.ar    
  16 N16           -2.3782     1.3200     0.3318 N.ar    
  17 C17           -3.4880     2.0232     0.4517 C.ar    
  18 C18           -4.7291     1.4088     0.3708 C.ar    
  19 C19           -4.7935     0.0326     0.1602 C.ar    
  20 C20           -3.6090    -0.6707     0.0341 C.ar    
  21 N21           -5.9023     2.1617     0.4995 N.3     
  22 C22            4.0016    -1.9292    -0.0333 C.3     
  23 C23           -6.6133     1.8212     1.7397 C.3     
  24 C24            3.4585    -2.6091     1.2253 C.3     
  25 O25            3.9435    -3.9518     1.2883 O.3     
  26 C26            3.4340    -2.6232    -1.2731 C.3     
  27 C27           -6.7740     1.9826    -0.6700 C.3     
  28 C28           -8.0050     2.8808    -0.5278 C.3     
  29 N29           -8.7160     2.5402     0.7125 N.3     
  30 C30           -7.8443     2.7194     1.8820 C.3     
  31 C31           -8.6091     2.3398     3.1516 C.3     
  32 H32            1.0847     3.1001    -0.0319 H       
  33 H33            6.4645    -0.2586    -0.0679 H       
  34 H34            6.3203     3.8911    -0.0879 H       
  35 H35            3.8597     3.8898    -0.0634 H       
  36 H36           -1.2103    -1.6559    -0.0630 H       
  37 H37           -3.4296     3.0891     0.6151 H       
  38 H38           -5.7459    -0.4722     0.0929 H       
  39 H39           -3.6218    -1.7380    -0.1302 H       
  40 H40            5.0892    -1.9994    -0.0436 H       
  41 H41           -6.9265     0.7777     1.7045 H       
  42 H42           -5.9512     1.9738     2.5920 H       
  43 H43            3.7912    -2.0608     2.1066 H       
  44 H44            2.3691    -2.6174     1.1924 H       
  45 H45            3.6385    -4.4442     2.0626 H       
  46 H46            3.8208    -2.1389    -2.1697 H       
  47 H47            3.7304    -3.6721    -1.2700 H       
  48 H48            2.3463    -2.5531    -1.2628 H       
  49 H49           -6.2291     2.2531    -1.5745 H       
  50 H50           -7.0890     0.9411    -0.7326 H       
  51 H51           -7.6917     3.9243    -0.4925 H       
  52 H52           -8.6670     2.7282    -1.3801 H       
  53 H53           -9.5615     3.0829     0.8052 H       
  54 H54           -7.5292     3.7609     1.9446 H       
  55 H55           -8.9231     1.2979     3.0888 H       
  56 H56           -7.9624     2.4727     4.0188 H       
  57 H57           -9.4868     2.9783     3.2516 H       
@<TRIPOS>BOND
   1    1    2 ar
   2    1    6 ar
   3    2    3 ar
   4    2   14 1
   5    3    4 ar
   6    4    5 ar
   7    4    7 1
   8    5    6 ar
   9    5    9 1
  10    6   32 1
  11    7    8 1
  12    7   22 1
  13    8    9 ar
  14    8   10 ar
  15    9   13 ar
  16   10   11 ar
  17   10   33 1
  18   11   12 ar
  19   12   13 ar
  20   12   34 1
  21   13   35 1
  22   14   15 1
  23   14   36 1
  24   15   16 ar
  25   15   20 ar
  26   16   17 ar
  27   17   18 ar
  28   17   37 1
  29   18   19 ar
  30   18   21 1
  31   19   20 ar
  32   19   38 1
  33   20   39 1
  34   21   27 1
  35   21   23 1
  36   22   24 1
  37   22   26 1
  38   22   40 1
  39   23   30 1
  40   23   41 1
  41   23   42 1
  42   24   25 1
  43   24   43 1
  44   24   44 1
  45   25   45 1
  46   26   46 1
  47   26   47 1
  48   26   48 1
  49   27   28 1
  50   27   49 1
  51   27   50 1
  52   28   29 1
  53   28   51 1
  54   28   52 1
  55   29   30 1
  56   29   53 1
  57   30   31 1
  58   30   54 1
  59   31   55 1
  60   31   56 1
  61   31   57 1

#	End of record

