#	Name: ASD01916706
#	Creating user name:	WinNT
#	Creation time:	15. 06. 2019 20:07

#	Modifying user name:	WinNT
#	Modification time:	15. 06. 2019 20:07

#	Program:	/corina/corina34_cracker 3.40 0067  02.08.2006

@<TRIPOS>MOLECULE
ASD01916706
  32   34    0    0    0
SMALL
NO_CHARGES


@<TRIPOS>ATOM
   1 O1            -0.0162     1.3430     0.0094 O.3     
   2 C2             0.0021    -0.0041     0.0020 C.2     
   3 N3             1.2396    -0.4356    -0.0121 N.2     
   4 C4             2.0747     0.6341    -0.0143 C.ar    
   5 C5             1.2626     1.7806    -0.0004 C.ar    
   6 C6             1.8458     3.0377     0.0007 C.ar    
   7 C7             3.2204     3.1585    -0.0117 C.ar    
   8 C8             4.0261     2.0297    -0.0255 C.ar    
   9 C9             3.4649     0.7723    -0.0273 C.ar    
  10 C10           -1.1597    -0.8413     0.0090 C.1     
  11 C11           -2.1121    -1.5276     0.0148 C.1     
  12 C12           -3.3063    -2.3882     0.0220 C.3     
  13 C13           -2.8768    -3.8567     0.0099 C.3     
  14 C14           -4.0994    -4.7377     0.0173 C.ar    
  15 C15           -4.6720    -5.1354    -1.1764 C.ar    
  16 C16           -5.7935    -5.9435    -1.1696 C.ar    
  17 C17           -6.3421    -6.3543     0.0309 C.ar    
  18 C18           -5.7690    -5.9574     1.2245 C.ar    
  19 C19           -4.6449    -5.1528     1.2177 C.ar    
  20 H20            1.2253     3.9217     0.0111 H       
  21 H21            3.6723     4.1394    -0.0111 H       
  22 H22            5.1007     2.1377    -0.0355 H       
  23 H23            4.0968    -0.1035    -0.0377 H       
  24 H24           -3.8926    -2.1886     0.9190 H       
  25 H25           -3.9103    -2.1790    -0.8609 H       
  26 H26           -2.2905    -4.0563    -0.8870 H       
  27 H27           -2.2729    -4.0659     0.8928 H       
  28 H28           -4.2434    -4.8144    -2.1143 H       
  29 H29           -6.2413    -6.2536    -2.1022 H       
  30 H30           -7.2188    -6.9851     0.0362 H       
  31 H31           -6.1978    -6.2781     2.1624 H       
  32 H32           -4.1950    -4.8458     2.1502 H       
@<TRIPOS>BOND
   1    1    2 1
   2    1    5 1
   3    2    3 2
   4    2   10 1
   5    3    4 1
   6    4    5 ar
   7    4    9 ar
   8    5    6 ar
   9    6    7 ar
  10    6   20 1
  11    7    8 ar
  12    7   21 1
  13    8    9 ar
  14    8   22 1
  15    9   23 1
  16   10   11 3
  17   11   12 1
  18   12   13 1
  19   12   24 1
  20   12   25 1
  21   13   14 1
  22   13   26 1
  23   13   27 1
  24   14   15 ar
  25   14   19 ar
  26   15   16 ar
  27   15   28 1
  28   16   17 ar
  29   16   29 1
  30   17   18 ar
  31   17   30 1
  32   18   19 ar
  33   18   31 1
  34   19   32 1

#	End of record

