#	Name: ASD04590657
#	Creating user name:	WinNT
#	Creation time:	15. 06. 2019 20:51

#	Modifying user name:	WinNT
#	Modification time:	15. 06. 2019 20:51

#	Program:	/corina/corina34_cracker 3.40 0067  02.08.2006

@<TRIPOS>MOLECULE
ASD04590657
  64   69    0    0    0
SMALL
NO_CHARGES


@<TRIPOS>ATOM
   1 N1             0.4210     2.0793     1.3144 N.ar    
   2 C2             0.5402     0.7605     1.2303 C.ar    
   3 N3             1.7048     0.1460     1.3602 N.ar    
   4 C4             2.8160     0.8414     1.5835 C.ar    
   5 C5             2.7226     2.2446     1.6781 C.ar    
   6 C6             1.4762     2.8460     1.5347 C.ar    
   7 N7             4.1296     0.4818     1.7551 N.pl3   
   8 C8             4.9149     1.6033     1.9614 C.ar    
   9 C9             4.0844     2.7366     1.9231 C.ar    
  10 C10            6.2756     1.7859     2.1817 C.ar    
  11 N11            6.7705     2.9960     2.3503 N.ar    
  12 C12            6.0162     4.0809     2.3199 C.ar    
  13 C13            4.6571     3.9951     2.1080 C.ar    
  14 N14           -0.5943     0.0003     0.9988 N.pl3   
  15 C15           -1.8475     0.6114     0.9613 C.ar    
  16 C16            4.6299    -0.8948     1.7252 C.3     
  17 C17            3.9515    -1.7263     2.8280 C.3     
  18 C18            3.1969    -2.8688     2.1172 C.3     
  19 C19            3.9328    -3.0255     0.7633 C.3     
  20 C20            4.2639    -1.5610     0.3828 C.3     
  21 N21           -1.9581     1.8956     1.2602 N.ar    
  22 C22           -3.1231     2.5151     1.2376 C.ar    
  23 C23           -4.2818     1.8338     0.8967 C.ar    
  24 C24           -4.2044     0.4793     0.5756 C.ar    
  25 C25           -2.9656    -0.1346     0.6047 C.ar    
  26 N26           -5.5142     2.4977     0.8758 N.3     
  27 C27           -5.3573     3.9109     1.2470 C.3     
  28 C28           -6.7100     4.6181     1.1351 C.3     
  29 N29           -7.6825     3.9511     2.0120 N.3     
  30 C30           -7.8394     2.5379     1.6409 C.3     
  31 C31           -6.4867     1.8307     1.7528 C.3     
  32 C32           -8.9757     4.6478     1.9901 C.3     
  33 C33           -9.9845     3.8775     2.8444 C.3     
  34 O34           -9.5308     3.8395     4.1989 O.3     
  35 Cl35           7.3313     0.4089     2.2359 Cl      
  36 H36            1.3722     3.9189     1.6017 H       
  37 H37            6.4718     5.0495     2.4638 H       
  38 H38            4.0468     4.8859     2.0847 H       
  39 H39           -0.5172    -0.9570     0.8628 H       
  40 H40            5.7110    -0.9019     1.8639 H       
  41 H41            4.7035    -2.1377     3.5013 H       
  42 H42            3.2500    -1.1056     3.3854 H       
  43 H43            3.2647    -3.7893     2.6970 H       
  44 H44            2.1544    -2.5947     1.9553 H       
  45 H45            4.8455    -3.6088     0.8850 H       
  46 H46            3.2791    -3.4797     0.0187 H       
  47 H47            3.3937    -1.0757    -0.0592 H       
  48 H48            5.1103    -1.5271    -0.3032 H       
  49 H49           -3.1747     3.5645     1.4876 H       
  50 H50           -5.0905    -0.0765     0.3068 H       
  51 H51           -2.8689    -1.1824     0.3616 H       
  52 H52           -4.9948     3.9795     2.2726 H       
  53 H53           -4.6420     4.3860     0.5756 H       
  54 H54           -6.6020     5.6597     1.4378 H       
  55 H55           -7.0597     4.5732     0.1037 H       
  56 H56           -8.5547     2.0628     2.3123 H       
  57 H57           -8.2019     2.4693     0.6153 H       
  58 H58           -6.5947     0.7891     1.4501 H       
  59 H59           -6.1370     1.8756     2.7842 H       
  60 H60           -8.8532     5.6539     2.3912 H       
  61 H61           -9.3389     4.7074     0.9642 H       
  62 H62          -10.9533     4.3750     2.7995 H       
  63 H63          -10.0804     2.8603     2.4647 H       
  64 H64          -10.1230     3.3656     4.7989 H       
@<TRIPOS>BOND
   1    1    2 ar
   2    1    6 ar
   3    2    3 ar
   4    2   14 1
   5    3    4 ar
   6    4    5 ar
   7    4    7 1
   8    5    6 ar
   9    5    9 1
  10    6   36 1
  11    7    8 1
  12    7   16 1
  13    8    9 ar
  14    8   10 ar
  15    9   13 ar
  16   10   11 ar
  17   10   35 1
  18   11   12 ar
  19   12   13 ar
  20   12   37 1
  21   13   38 1
  22   14   15 1
  23   14   39 1
  24   15   21 ar
  25   15   25 ar
  26   16   17 1
  27   16   20 1
  28   16   40 1
  29   17   18 1
  30   17   41 1
  31   17   42 1
  32   18   19 1
  33   18   43 1
  34   18   44 1
  35   19   20 1
  36   19   45 1
  37   19   46 1
  38   20   47 1
  39   20   48 1
  40   21   22 ar
  41   22   23 ar
  42   22   49 1
  43   23   24 ar
  44   23   26 1
  45   24   25 ar
  46   24   50 1
  47   25   51 1
  48   26   27 1
  49   26   31 1
  50   27   28 1
  51   27   52 1
  52   27   53 1
  53   28   29 1
  54   28   54 1
  55   28   55 1
  56   29   30 1
  57   29   32 1
  58   30   31 1
  59   30   56 1
  60   30   57 1
  61   31   58 1
  62   31   59 1
  63   32   33 1
  64   32   60 1
  65   32   61 1
  66   33   34 1
  67   33   62 1
  68   33   63 1
  69   34   64 1

#	End of record

