#	Name: ASD02560367
#	Creating user name:	WinNT
#	Creation time:	15. 06. 2019 20:25

#	Modifying user name:	WinNT
#	Modification time:	15. 06. 2019 20:25

#	Program:	/corina/corina34_cracker 3.40 0067  02.08.2006

@<TRIPOS>MOLECULE
ASD02560367
  44   47    0    0    0
SMALL
NO_CHARGES


@<TRIPOS>ATOM
   1 C1             0.0149     1.4259     0.2947 C.2     
   2 C2             0.0199     0.0249     0.1730 C.2     
   3 C3             1.1855    -0.6479     0.0959 C.2     
   4 N4             2.3799     0.0204     0.1343 N.pl3   
   5 C5             2.4065     1.3913     0.2524 C.2     
   6 C6             1.1920     2.1051     0.3343 C.2     
   7 C7             3.6766    -0.4091     0.0757 C.2     
   8 C8             4.4740     0.7161     0.1597 C.2     
   9 N9             3.6679     1.7898     0.2659 N.2     
  10 C10            5.9499     0.7375     0.1379 C.2     
  11 N11            4.1109    -1.7292    -0.0450 N.3     
  12 C12            2.9871    -2.6667     0.0815 C.3     
  13 C13            6.7264     1.7023    -0.4258 C.2     
  14 C14            2.3060    -2.8329    -1.2785 C.3     
  15 C15            3.5064    -4.0237     0.5610 C.3     
  16 C16            2.3359    -5.0002     0.6927 C.3     
  17 C17            1.6549    -5.1663    -0.6672 C.3     
  18 C18            1.1355    -3.8094    -1.1467 C.3     
  19 C19            8.0670     1.3203    -0.2132 C.2     
  20 C20            8.0432     0.1552     0.4617 C.2     
  21 O21            6.7621    -0.1916     0.6775 O.3     
  22 C22            9.2520    -0.6269     0.9069 C.3     
  23 O23            9.6415    -0.1990     2.2135 O.3     
  24 H24           -0.9213     1.9612     0.3520 H       
  25 H25           -0.9150    -0.5148     0.1415 H       
  26 H26            1.1771    -1.7239     0.0033 H       
  27 H27            1.1974     3.1811     0.4269 H       
  28 H28            4.6031    -1.8699    -0.9145 H       
  29 H29            2.2684    -2.2773     0.8026 H       
  30 H30            6.3824     2.5890    -0.9375 H       
  31 H31            1.9360    -1.8662    -1.6201 H       
  32 H32            3.0247    -3.2224    -1.9995 H       
  33 H33            4.2251    -4.4131    -0.1601 H       
  34 H34            3.9916    -3.9053     1.5298 H       
  35 H35            2.7059    -5.9669     1.0343 H       
  36 H36            1.6173    -4.6107     1.4138 H       
  37 H37            2.3735    -5.5558    -1.3883 H       
  38 H38            0.8210    -5.8620    -0.5734 H       
  39 H39            0.4169    -3.4200    -0.4257 H       
  40 H40            0.6503    -3.9278    -2.1156 H       
  41 H41            8.9466     1.8598    -0.5319 H       
  42 H42            9.0091    -1.6893     0.9299 H       
  43 H43           10.0721    -0.4567     0.2093 H       
  44 H44           10.4151    -0.6610     2.5644 H       
@<TRIPOS>BOND
   1    1    2 1
   2    1    6 2
   3    1   24 1
   4    2    3 2
   5    2   25 1
   6    3    4 1
   7    3   26 1
   8    4    5 1
   9    4    7 1
  10    5    6 1
  11    5    9 2
  12    6   27 1
  13    7    8 2
  14    7   11 1
  15    8    9 1
  16    8   10 1
  17   10   13 2
  18   10   21 1
  19   11   12 1
  20   11   28 1
  21   12   15 1
  22   12   14 1
  23   12   29 1
  24   13   19 1
  25   13   30 1
  26   14   18 1
  27   14   31 1
  28   14   32 1
  29   15   16 1
  30   15   33 1
  31   15   34 1
  32   16   17 1
  33   16   35 1
  34   16   36 1
  35   17   18 1
  36   17   37 1
  37   17   38 1
  38   18   39 1
  39   18   40 1
  40   19   20 2
  41   19   41 1
  42   20   21 1
  43   20   22 1
  44   22   23 1
  45   22   42 1
  46   22   43 1
  47   23   44 1

#	End of record

