#	Name: ASD02560051
#	Creating user name:	WinNT
#	Creation time:	15. 06. 2019 20:24

#	Modifying user name:	WinNT
#	Modification time:	15. 06. 2019 20:24

#	Program:	/corina/corina34_cracker 3.40 0067  02.08.2006

@<TRIPOS>MOLECULE
ASD02560051
  35   37    0    0    0
SMALL
NO_CHARGES


@<TRIPOS>ATOM
   1 C1             0.0591     1.6235     0.6141 C.ar    
   2 C2             0.0684     0.2806     0.9378 C.ar    
   3 C3             1.2425    -0.4428     0.8783 C.ar    
   4 C4             2.4469     0.1763     0.5404 C.ar    
   5 C5             2.4458     1.5168     0.2867 C.ar    
   6 C6             1.2452     2.2346     0.2384 C.ar    
   7 C7             3.6520    -0.7376     0.4701 C.3     
   8 N8             4.8603    -0.0669     0.9090 N.3     
   9 C9             5.3568     0.9867     0.0767 C.3     
  10 C10            4.8096     2.3398     0.4451 C.3     
  11 N11            3.4377     2.4903    -0.0218 N.am    
  12 C12            2.8401     3.4992    -0.6523 C.2     
  13 N13            1.5265     3.4695    -0.3452 N.am    
  14 O14            3.3846     4.3085    -1.3799 O.2     
  15 C15            6.8821     1.0256     0.1900 C.3     
  16 C16            5.9189    -1.0376     1.2171 C.3     
  17 C17            5.4057    -2.0393     2.2193 C.2     
  18 C18            5.4507    -3.3200     1.9472 C.2     
  19 H19           -0.8606     2.1885     0.6490 H       
  20 H20           -0.8475    -0.2057     1.2394 H       
  21 H21            1.2291    -1.5006     1.0961 H       
  22 H22            3.4769    -1.6061     1.1050 H       
  23 H23            3.7849    -1.0721    -0.5587 H       
  24 H24            5.0903     0.7709    -0.9580 H       
  25 H25            4.8338     2.4531     1.5289 H       
  26 H26            5.4296     3.1128    -0.0092 H       
  27 H27            0.8886     4.1829    -0.5034 H       
  28 H28            7.2972     0.0838    -0.1689 H       
  29 H29            7.2704     1.8468    -0.4123 H       
  30 H30            7.1653     1.1737     1.2321 H       
  31 H31            6.2141    -1.5553     0.3044 H       
  32 H32            6.7804    -0.5157     1.6336 H       
  33 H33            5.0009    -1.7014     3.1618 H       
  34 H34            5.8555    -3.6579     1.0047 H       
  35 H35            5.0829    -4.0378     2.6654 H       
@<TRIPOS>BOND
   1    1    2 ar
   2    1    6 ar
   3    1   19 1
   4    2    3 ar
   5    2   20 1
   6    3    4 ar
   7    3   21 1
   8    4    5 ar
   9    4    7 1
  10    5    6 ar
  11    5   11 1
  12    6   13 1
  13    7    8 1
  14    7   22 1
  15    7   23 1
  16    8    9 1
  17    8   16 1
  18    9   10 1
  19    9   15 1
  20    9   24 1
  21   10   11 1
  22   10   25 1
  23   10   26 1
  24   11   12 am
  25   12   13 am
  26   12   14 2
  27   13   27 1
  28   15   28 1
  29   15   29 1
  30   15   30 1
  31   16   17 1
  32   16   31 1
  33   16   32 1
  34   17   18 2
  35   17   33 1
  36   18   34 1
  37   18   35 1

#	End of record

