#	Name: ASD01820133
#	Creating user name:	WinNT
#	Creation time:	15. 06. 2019 19:36

#	Modifying user name:	WinNT
#	Modification time:	15. 06. 2019 19:36

#	Program:	/corina/corina34_cracker 3.40 0067  02.08.2006

@<TRIPOS>MOLECULE
ASD01820133
 100  110    0    0    0
SMALL
NO_CHARGES


@<TRIPOS>ATOM
   1 N1            -0.2461     0.7979    -0.5226 N.pl3   
   2 C2             0.0395    -0.5528    -0.5185 C.2     
   3 C3             0.6644    -1.2271    -1.4589 C.2     
   4 C4             1.1672    -0.6342    -2.7326 C.3     
   5 N5             0.3512     0.5363    -3.1502 N.pl3   
   6 C6             0.7418     1.8524    -3.0016 C.2     
   7 C7             0.9416     2.4854    -1.8674 C.2     
   8 C8             0.7725     1.8762    -0.5170 C.3     
   9 C9             0.9499    -1.5747    -3.9293 C.3     
  10 C10           -0.3964    -1.1948    -4.4422 C.ar    
  11 C11           -0.7218     0.0555    -3.8831 C.ar    
  12 C12           -1.2585    -1.8592    -5.2935 C.ar    
  13 C13           -2.4761    -1.2470    -5.5637 C.ar    
  14 C14           -2.8158    -0.0343    -5.0004 C.ar    
  15 C15           -1.9556     0.6435    -4.1498 C.ar    
  16 C16            1.3786     3.9363    -1.9987 C.3     
  17 C17            0.4485     4.7948    -1.1323 C.3     
  18 C18            0.5444     4.3132     0.2936 C.3     
  19 C19            0.1432     2.8595     0.4819 C.3     
  20 C20           -1.3208     2.6219     0.3423 C.ar    
  21 C21           -1.4853     1.3940    -0.3266 C.ar    
  22 C22           -2.3973     3.3887     0.7376 C.ar    
  23 C23           -3.6645     2.9045     0.4351 C.ar    
  24 C24           -3.8387     1.7129    -0.2378 C.ar    
  25 C25           -2.7633     0.9313    -0.6356 C.ar    
  26 C26            0.6628     2.5369     1.9014 C.3     
  27 C27            2.7567     4.0610    -1.3730 C.2     
  28 N28            1.8836     4.3983     0.9011 N.4     
  29 C29            1.7555     3.6004     2.1586 C.3     
  30 H30            1.7263     1.4982    -0.1492 H       
  31 H31            1.3663     4.2621    -3.0388 H       
  32 O32            4.7876     4.1127    -4.2223 O.3     
  33 C33            3.7882     4.4660    -2.0717 C.2     
  34 C34            3.6554     4.6772    -3.5579 C.3     
  35 H35            2.2159    -0.3538    -2.6342 H       
  36 O36            2.9280    -3.1528     2.3071 O.3     
  37 C37            1.0908    -3.0536    -3.6149 C.3     
  38 C38            0.8625    -2.7116    -1.1793 C.3     
  39 C39            0.3371    -3.4973    -2.3882 C.3     
  40 C40            2.3616    -2.9702    -1.1427 C.2     
  41 N41            2.5489    -3.2735    -3.5748 N.4     
  42 C42            2.0681    -1.3290    -4.9682 C.3     
  43 C43            3.0609    -2.4936    -4.7417 C.3     
  44 H44            0.3698    -3.0162    -0.2560 H       
  45 C45            2.9420    -3.4520    -0.0717 C.2     
  46 C46            2.1534    -3.6210     1.2013 C.3     
  47 C47            2.2610     5.7905     1.1792 C.3     
  48 C48            3.6346     5.8245     1.7981 C.2     
  49 C49            4.5787     6.5543     1.2576 C.2     
  50 C50            2.8819    -4.6998    -3.6881 C.3     
  51 C51            4.3784    -4.8714    -3.6421 C.2     
  52 C52            4.9190    -5.6722    -2.7575 C.2     
  53 C53            2.8900     3.7006     0.0848 C.3     
  54 C54            3.1525    -2.6522    -2.3832 C.3     
  55 H55           -0.2834    -1.1135     0.3462 H       
  56 H56            0.8993     2.4179    -3.9082 H       
  57 H57           -0.9973    -2.8120    -5.7297 H       
  58 H58           -3.1732    -1.7318    -6.2310 H       
  59 H59           -3.7784     0.3993    -5.2284 H       
  60 H60           -2.2320     1.5908    -3.7109 H       
  61 H61            0.7564     5.8389    -1.1878 H       
  62 H62           -0.5779     4.6932    -1.4850 H       
  63 H63           -0.1221     4.9245     0.9020 H       
  64 H64           -2.2613     4.3244     1.2596 H       
  65 H65           -4.5323     3.4737     0.7340 H       
  66 H66           -4.8411     1.3791    -0.4618 H       
  67 H67           -2.9104     0.0003    -1.1630 H       
  68 H68           -0.1406     2.6314     2.6320 H       
  69 H69            1.0912     1.5351     1.9320 H       
  70 H70            1.4585     4.2484     2.9831 H       
  71 H71            2.7030     3.1134     2.3891 H       
  72 H72            4.7692     4.2121    -5.1840 H       
  73 H73            4.7337     4.6484    -1.5827 H       
  74 H74            3.6049     5.7452    -3.7700 H       
  75 H75            2.7463     4.1927    -3.9140 H       
  76 H76            2.4816    -3.2314     3.1613 H       
  77 H77            0.6920    -3.6135    -4.4608 H       
  78 H78           -0.7263    -3.2977    -2.5200 H       
  79 H79            0.4946    -4.5639    -2.2278 H       
  80 H80            1.6634    -1.3642    -5.9796 H       
  81 H81            2.5554    -0.3714    -4.7846 H       
  82 H82            4.0532    -2.1003    -4.5210 H       
  83 H83            3.0992    -3.1285    -5.6268 H       
  84 H84            3.9857    -3.7281    -0.1011 H       
  85 H85            1.9159    -4.6751     1.3443 H       
  86 H86            1.2297    -3.0461     1.1355 H       
  87 H87            2.2676     6.3580     0.2486 H       
  88 H88            1.5409     6.2314     1.8685 H       
  89 H89            3.8406     5.2472     2.6873 H       
  90 H90            5.5631     6.5787     1.7011 H       
  91 H91            4.3726     7.1316     0.3683 H       
  92 H92            2.4280    -5.2457    -2.8609 H       
  93 H93            2.5005    -5.0881    -4.6324 H       
  94 H94            5.0052    -4.3343    -4.3385 H       
  95 H95            5.9915    -5.7952    -2.7246 H       
  96 H96            4.2922    -6.2094    -2.0611 H       
  97 H97            2.7595     2.6245     0.1999 H       
  98 H98            3.8855     3.9776     0.4316 H       
  99 H99            3.1821    -1.5713    -2.5204 H       
 100 H100           4.1701    -3.0239    -2.2629 H       
@<TRIPOS>BOND
   1    1    2 1
   2    1    8 1
   3    1   21 1
   4    2    3 2
   5    2   55 1
   6    3    4 1
   7    3   38 1
   8    4    5 1
   9    4    9 1
  10    4   35 1
  11    5    6 1
  12    5   11 1
  13    6    7 2
  14    6   56 1
  15    7    8 1
  16    7   16 1
  17    8   19 1
  18    8   30 1
  19    9   10 1
  20    9   42 1
  21    9   37 1
  22   10   11 ar
  23   10   12 ar
  24   11   15 ar
  25   12   13 ar
  26   12   57 1
  27   13   14 ar
  28   13   58 1
  29   14   15 ar
  30   14   59 1
  31   15   60 1
  32   16   17 1
  33   16   27 1
  34   16   31 1
  35   17   18 1
  36   17   61 1
  37   17   62 1
  38   18   19 1
  39   18   28 1
  40   18   63 1
  41   19   20 1
  42   19   26 1
  43   20   21 ar
  44   20   22 ar
  45   21   25 ar
  46   22   23 ar
  47   22   64 1
  48   23   24 ar
  49   23   65 1
  50   24   25 ar
  51   24   66 1
  52   25   67 1
  53   26   29 1
  54   26   68 1
  55   26   69 1
  56   27   33 2
  57   27   53 1
  58   28   47 1
  59   28   53 1
  60   28   29 1
  61   29   70 1
  62   29   71 1
  63   32   34 1
  64   32   72 1
  65   33   34 1
  66   33   73 1
  67   34   74 1
  68   34   75 1
  69   36   46 1
  70   36   76 1
  71   37   41 1
  72   37   39 1
  73   37   77 1
  74   38   39 1
  75   38   40 1
  76   38   44 1
  77   39   78 1
  78   39   79 1
  79   40   45 2
  80   40   54 1
  81   41   50 1
  82   41   54 1
  83   41   43 1
  84   42   43 1
  85   42   80 1
  86   42   81 1
  87   43   82 1
  88   43   83 1
  89   45   46 1
  90   45   84 1
  91   46   85 1
  92   46   86 1
  93   47   48 1
  94   47   87 1
  95   47   88 1
  96   48   49 2
  97   48   89 1
  98   49   90 1
  99   49   91 1
 100   50   51 1
 101   50   92 1
 102   50   93 1
 103   51   52 2
 104   51   94 1
 105   52   95 1
 106   52   96 1
 107   53   97 1
 108   53   98 1
 109   54   99 1
 110   54  100 1

#	End of record

