#	Name: ASD02038513
#	Creating user name:	WinNT
#	Creation time:	15. 06. 2019 20:16

#	Modifying user name:	WinNT
#	Modification time:	15. 06. 2019 20:16

#	Program:	/corina/corina34_cracker 3.40 0067  02.08.2006

@<TRIPOS>MOLECULE
ASD02038513
  55   58    0    0    0
SMALL
NO_CHARGES


@<TRIPOS>ATOM
   1 Cl1            1.4546     7.9229     0.3368 Cl      
   2 C2            -0.0187     1.5263     0.0104 C.3     
   3 C3             0.0021    -0.0041     0.0020 C.3     
   4 N4             0.7238    -0.4751    -1.1883 N.3     
   5 C5             0.7003    -1.9415    -1.2723 C.3     
   6 C6             1.6601    -2.4049    -2.3699 C.3     
   7 C7             1.6357    -3.9322    -2.4573 C.3     
   8 O8             2.6158    -4.3711    -3.4001 O.3     
   9 C9             2.7249    -5.7119    -3.5982 C.ar    
  10 C10            3.6565    -6.2061    -4.4999 C.ar    
  11 C11            1.9088    -6.5852    -2.8946 C.ar    
  12 C12            2.0194    -7.9474    -3.0943 C.ar    
  13 C13            2.9475    -8.4422    -4.0002 C.ar    
  14 N14            3.0624    -9.8225    -4.2058 N.am    
  15 C15            2.1034     0.0310    -1.1988 C.3     
  16 C16            2.0826     1.5614    -1.1904 C.3     
  17 N17            1.3610     2.0324    -0.0000 N.3     
  18 C18            1.3833     3.4273     0.0798 C.ar    
  19 C19            0.7547     4.0739     1.1362 C.ar    
  20 C20            0.7783     5.4527     1.2126 C.ar    
  21 C21            1.4274     6.1899     0.2379 C.ar    
  22 C22            2.0545     5.5484    -0.8157 C.ar    
  23 C23            2.0390     4.1696    -0.8940 C.ar    
  24 C24            3.7674    -7.5672    -4.7009 C.ar    
  25 C25            4.7732    -8.1073    -5.6841 C.3     
  26 O26            1.2550    -1.8495    -3.6227 O.3     
  27 C27            4.1681   -10.3373    -4.7742 C.2     
  28 C28            5.3082    -9.4492    -5.1833 C.3     
  29 O29            4.2459   -11.5337    -4.9584 O.2     
  30 H30           -0.5453     1.8877    -0.8728 H       
  31 H31           -0.5283     1.8781     0.9074 H       
  32 H32            0.5048    -0.3659     0.8989 H       
  33 H33           -1.0203    -0.3815    -0.0195 H       
  34 H34            1.0093    -2.3651    -0.3167 H       
  35 H35           -0.3100    -2.2758    -1.5082 H       
  36 H36            2.6704    -2.0706    -2.1340 H       
  37 H37            1.8583    -4.3558    -1.4780 H       
  38 H38            0.6481    -4.2619    -2.7798 H       
  39 H39            4.2945    -5.5260    -5.0447 H       
  40 H40            1.1867    -6.1999    -2.1899 H       
  41 H41            1.3844    -8.6272    -2.5456 H       
  42 H42            2.3402   -10.4115    -3.9365 H       
  43 H43            2.6300    -0.3304    -0.3155 H       
  44 H44            2.6130    -0.3208    -2.0958 H       
  45 H45            3.1050     1.9388    -1.1689 H       
  46 H46            1.5799     1.9232    -2.0873 H       
  47 H47            0.2476     3.4991     1.8970 H       
  48 H48            0.2894     5.9560     2.0336 H       
  49 H49            2.5601     6.1262    -1.5752 H       
  50 H50            2.5288     3.6694    -1.7164 H       
  51 H51            4.2948    -8.2461    -6.6536 H       
  52 H52            5.5982    -7.4019    -5.7841 H       
  53 H53            0.3635    -2.1054    -3.8965 H       
  54 H54            5.8773    -9.9332    -5.9771 H       
  55 H55            5.9591    -9.2777    -4.3260 H       
@<TRIPOS>BOND
   1    1   21 1
   2    2    3 1
   3    2   17 1
   4    2   30 1
   5    2   31 1
   6    3    4 1
   7    3   32 1
   8    3   33 1
   9    4    5 1
  10    4   15 1
  11    5    6 1
  12    5   34 1
  13    5   35 1
  14    6    7 1
  15    6   26 1
  16    6   36 1
  17    7    8 1
  18    7   37 1
  19    7   38 1
  20    8    9 1
  21    9   10 ar
  22    9   11 ar
  23   10   24 ar
  24   10   39 1
  25   11   12 ar
  26   11   40 1
  27   12   13 ar
  28   12   41 1
  29   13   24 ar
  30   13   14 1
  31   14   27 am
  32   14   42 1
  33   15   16 1
  34   15   43 1
  35   15   44 1
  36   16   17 1
  37   16   45 1
  38   16   46 1
  39   17   18 1
  40   18   19 ar
  41   18   23 ar
  42   19   20 ar
  43   19   47 1
  44   20   21 ar
  45   20   48 1
  46   21   22 ar
  47   22   23 ar
  48   22   49 1
  49   23   50 1
  50   24   25 1
  51   25   28 1
  52   25   51 1
  53   25   52 1
  54   26   53 1
  55   27   28 1
  56   27   29 2
  57   28   54 1
  58   28   55 1

#	End of record

