#	Name: ASD01410387
#	Creating user name:	WinNT
#	Creation time:	15. 06. 2019 19:17

#	Modifying user name:	WinNT
#	Modification time:	15. 06. 2019 19:17

#	Program:	/corina/corina34_cracker 3.40 0067  02.08.2006

@<TRIPOS>MOLECULE
ASD01410387
  21   22    0    0    0
SMALL
NO_CHARGES


@<TRIPOS>ATOM
   1 S1             0.1211     1.7728     0.8353 S.3     
   2 C2             0.1928     0.0085     0.9864 C.2     
   3 N3             1.4330    -0.3613     0.6473 N.am    
   4 C4             2.3132     0.5593     0.2908 C.2     
   5 C5             1.8079     1.9385     0.3086 C.2     
   6 O6             3.4551     0.2845    -0.0279 O.2     
   7 S7            -1.0817    -1.0254     1.4742 S.2     
   8 C8             2.4762     3.0763    -0.0057 C.2     
   9 C9             1.7538     4.3534    -0.0895 C.ar    
  10 C10            2.4492     5.5631     0.0193 C.ar    
  11 C11            1.7649     6.7567    -0.0602 C.ar    
  12 C12            0.3920     6.7611    -0.2474 C.ar    
  13 C13           -0.3033     5.5676    -0.3560 C.ar    
  14 C14            0.3680     4.3660    -0.2843 C.ar    
  15 Cl15          -0.4613     8.2697    -0.3457 Cl      
  16 H16            1.6849    -1.2979     0.6631 H       
  17 H17            3.5391     3.0436    -0.1944 H       
  18 H18            3.5192     5.5612     0.1656 H       
  19 H19            2.3000     7.6911     0.0239 H       
  20 H20           -1.3734     5.5789    -0.5015 H       
  21 H21           -0.1747     3.4365    -0.3736 H       
@<TRIPOS>BOND
   1    1    2 1
   2    1    5 1
   3    2    3 am
   4    2    7 2
   5    3    4 am
   6    3   16 1
   7    4    5 1
   8    4    6 2
   9    5    8 2
  10    8    9 1
  11    8   17 1
  12    9   10 ar
  13    9   14 ar
  14   10   11 ar
  15   10   18 1
  16   11   12 ar
  17   11   19 1
  18   12   13 ar
  19   12   15 1
  20   13   14 ar
  21   13   20 1
  22   14   21 1

#	End of record

