#	Name: ASD01882098
#	Creating user name:	WinNT
#	Creation time:	15. 06. 2019 19:43

#	Modifying user name:	WinNT
#	Modification time:	15. 06. 2019 19:43

#	Program:	/corina/corina34_cracker 3.40 0067  02.08.2006

@<TRIPOS>MOLECULE
ASD01882098
  52   56    0    0    0
SMALL
NO_CHARGES


@<TRIPOS>ATOM
   1 C1            -0.0164     1.3569     0.0095 C.2     
   2 C2             0.0021    -0.0041     0.0020 C.2     
   3 C3            -1.2087    -0.7162     0.0102 C.2     
   4 C4            -2.3862    -0.0574     0.0255 C.2     
   5 N5            -2.4197     1.3075     0.0332 N.pl3   
   6 C6            -1.2553     2.0305     0.0309 C.2     
   7 C7            -3.4497     2.2079     0.0483 C.2     
   8 C8            -2.9006     3.4425     0.0495 C.2     
   9 N9            -1.5714     3.3178     0.0396 N.2     
  10 N10            1.6969    -1.0962     1.3585 N.3     
  11 Cl11           1.4697     2.2543     0.0001 Cl      
  12 C12           -4.9213     1.8835     0.0605 C.3     
  13 C13            2.8408    -2.0170     1.3669 C.3     
  14 C14            3.3026    -2.2443     2.8084 C.3     
  15 C15            2.1459    -2.8265     3.6235 C.3     
  16 C16            0.9488    -1.8768     3.5567 C.3     
  17 C17            0.5567    -1.6582     2.0935 C.3     
  18 C18            1.3152    -0.7434    -0.0155 C.3     
  19 O19            1.7808    -4.1022     3.0943 O.3     
  20 C20            0.9756    -4.8831     3.8628 C.ar    
  21 C21            0.7988    -4.6035     5.2087 C.ar    
  22 C22            1.4940    -3.4244     5.8412 C.3     
  23 O23            2.5547    -2.9875     4.9855 O.3     
  24 C24            0.3286    -5.9710     3.2920 C.ar    
  25 C25           -0.4881    -6.7721     4.0653 C.ar    
  26 C26           -0.6626    -6.4911     5.4081 C.ar    
  27 C27           -0.0200    -5.4087     5.9787 C.ar    
  28 C28           -5.4602     1.9049    -1.3713 C.3     
  29 F29           -4.7795     0.9546    -2.1400 F       
  30 F30           -6.8263     1.6037    -1.3600 F       
  31 F31           -5.2674     3.1759    -1.9232 F       
  32 H32           -1.1971    -1.7961     0.0040 H       
  33 H33           -3.3111    -0.6151     0.0314 H       
  34 H34           -3.4459     4.3746     0.0594 H       
  35 H35           -5.0715     0.8932     0.4905 H       
  36 H36           -5.4517     2.6239     0.6594 H       
  37 H37            2.5444    -2.9688     0.9261 H       
  38 H38            3.6577    -1.5870     0.7873 H       
  39 H39            4.1405    -2.9413     2.8165 H       
  40 H40            3.6137    -1.2951     3.2448 H       
  41 H41            0.1084    -2.3122     4.0973 H       
  42 H42            1.2166    -0.9215     4.0081 H       
  43 H43           -0.2847    -0.9672     2.0423 H       
  44 H44            0.2714    -2.6111     1.6477 H       
  45 H45            1.2127    -1.6520    -0.6088 H       
  46 H46            2.0842    -0.1077    -0.4544 H       
  47 H47            0.7801    -2.6125     5.9800 H       
  48 H48            1.9038    -3.7188     6.8074 H       
  49 H49            0.4638    -6.1904     2.2432 H       
  50 H50           -0.9911    -7.6184     3.6212 H       
  51 H51           -1.3017    -7.1185     6.0117 H       
  52 H52           -0.1581    -5.1911     7.0275 H       
@<TRIPOS>BOND
   1    1    2 2
   2    1   11 1
   3    1    6 1
   4    2    3 1
   5    2   18 1
   6    3    4 2
   7    3   32 1
   8    4    5 1
   9    4   33 1
  10    5    6 1
  11    5    7 1
  12    6    9 2
  13    7    8 2
  14    7   12 1
  15    8    9 1
  16    8   34 1
  17   10   13 1
  18   10   18 1
  19   10   17 1
  20   12   28 1
  21   12   35 1
  22   12   36 1
  23   13   14 1
  24   13   37 1
  25   13   38 1
  26   14   15 1
  27   14   39 1
  28   14   40 1
  29   15   16 1
  30   15   19 1
  31   15   23 1
  32   16   17 1
  33   16   41 1
  34   16   42 1
  35   17   43 1
  36   17   44 1
  37   18   45 1
  38   18   46 1
  39   19   20 1
  40   20   21 ar
  41   20   24 ar
  42   21   22 1
  43   21   27 ar
  44   22   23 1
  45   22   47 1
  46   22   48 1
  47   24   25 ar
  48   24   49 1
  49   25   26 ar
  50   25   50 1
  51   26   27 ar
  52   26   51 1
  53   27   52 1
  54   28   29 1
  55   28   30 1
  56   28   31 1

#	End of record

