#	Name: ASD01885702
#	Creating user name:	WinNT
#	Creation time:	15. 06. 2019 19:50

#	Modifying user name:	WinNT
#	Modification time:	15. 06. 2019 19:50

#	Program:	/corina/corina34_cracker 3.40 0067  02.08.2006

@<TRIPOS>MOLECULE
ASD01885702
  56   61    0    0    0
SMALL
NO_CHARGES


@<TRIPOS>ATOM
   1 C1             0.0669     2.0106    -2.0692 C.ar    
   2 C2            -1.1583     2.6466    -2.3939 C.ar    
   3 C3            -1.1299     3.9354    -2.9844 C.ar    
   4 C4             0.1092     4.5160    -3.2176 C.ar    
   5 C5             1.2727     3.8214    -2.8677 C.ar    
   6 N6             1.2251     2.6200    -2.3239 N.ar    
   7 C7             0.0371     0.7309    -1.4829 C.ar    
   8 C8            -1.1581     0.1302    -1.2336 C.ar    
   9 C9            -2.3593     0.7614    -1.5495 C.ar    
  10 C10           -2.3695     1.9954    -2.1281 C.ar    
  11 C11           -2.3826     4.6395    -3.3415 C.ar    
  12 C12           -2.5843     5.9587    -2.9347 C.ar    
  13 C13           -3.7527     6.6102    -3.2698 C.ar    
  14 C14           -3.3626     3.9878    -4.0907 C.ar    
  15 C15            2.5926     4.4459    -3.1262 C.2     
  16 N16            3.7240     3.7871    -2.8064 N.am    
  17 O17            2.6540     5.5515    -3.6264 O.2     
  18 C18           -1.1832    -1.2343    -0.5944 C.3     
  19 N19           -1.1704    -2.2626    -1.6378 N.pl3   
  20 C20           -4.7257     5.9566    -4.0094 C.ar    
  21 C21           -4.5276     4.6479    -4.4208 C.ar    
  22 F22           -5.8688     6.5989    -4.3348 F       
  23 C23           -0.0626    -2.8573    -2.1786 C.2     
  24 N24           -0.4260    -3.7303    -3.0857 N.2     
  25 C25           -1.7775    -3.7503    -3.1828 C.ar    
  26 C26           -2.2742    -2.8173    -2.2552 C.ar    
  27 C27           -2.6738    -4.4780    -3.9727 C.ar    
  28 C28           -4.0178    -4.2735    -3.8414 C.ar    
  29 C29           -4.5076    -3.3481    -2.9304 C.ar    
  30 C30           -3.6437    -2.6247    -2.1356 C.ar    
  31 C31            1.3350    -2.5587    -1.7971 C.ar    
  32 C32            2.3477    -2.5602    -2.7563 C.ar    
  33 N33            3.5922    -2.2940    -2.4169 N.ar    
  34 C34            3.9309    -2.0179    -1.1723 C.ar    
  35 C35            2.9852    -1.9968    -0.1628 C.ar    
  36 C36            1.6624    -2.2641    -0.4685 C.ar    
  37 H37            0.1750     5.4963    -3.6660 H       
  38 H38            0.9593     0.2278    -1.2322 H       
  39 H39           -3.2945     0.2663    -1.3334 H       
  40 H40           -3.3072     2.4727    -2.3718 H       
  41 H41           -1.8268     6.4687    -2.3580 H       
  42 H42           -3.9100     7.6313    -2.9550 H       
  43 H43           -3.2089     2.9682    -4.4121 H       
  44 H44            3.6750     2.9045    -2.4071 H       
  45 H45            4.5874     4.1957    -2.9754 H       
  46 H46           -0.3072    -1.3529     0.0433 H       
  47 H47           -2.0867    -1.3375     0.0064 H       
  48 H48           -5.2886     4.1430    -4.9972 H       
  49 H49           -2.3036    -5.2001    -4.6853 H       
  50 H50           -4.7065    -4.8373    -4.4531 H       
  51 H51           -5.5732    -3.1977    -2.8392 H       
  52 H52           -4.0305    -1.9062    -1.4281 H       
  53 H53            2.1094    -2.7821    -3.7860 H       
  54 H54            4.9634    -1.8052    -0.9374 H       
  55 H55            3.2755    -1.7697     0.8523 H       
  56 H56            0.9035    -2.2540     0.2998 H       
@<TRIPOS>BOND
   1    1    7 ar
   2    1    6 ar
   3    1    2 ar
   4    2    3 ar
   5    2   10 ar
   6    3   11 1
   7    3    4 ar
   8    4    5 ar
   9    4   37 1
  10    5   15 1
  11    5    6 ar
  12    7    8 ar
  13    7   38 1
  14    8    9 ar
  15    8   18 1
  16    9   10 ar
  17    9   39 1
  18   10   40 1
  19   11   12 ar
  20   11   14 ar
  21   12   13 ar
  22   12   41 1
  23   13   20 ar
  24   13   42 1
  25   14   21 ar
  26   14   43 1
  27   15   16 am
  28   15   17 2
  29   16   44 1
  30   16   45 1
  31   18   19 1
  32   18   46 1
  33   18   47 1
  34   19   23 1
  35   19   26 1
  36   20   21 ar
  37   20   22 1
  38   21   48 1
  39   23   24 2
  40   23   31 1
  41   24   25 1
  42   25   26 ar
  43   25   27 ar
  44   26   30 ar
  45   27   28 ar
  46   27   49 1
  47   28   29 ar
  48   28   50 1
  49   29   30 ar
  50   29   51 1
  51   30   52 1
  52   31   32 ar
  53   31   36 ar
  54   32   33 ar
  55   32   53 1
  56   33   34 ar
  57   34   35 ar
  58   34   54 1
  59   35   36 ar
  60   35   55 1
  61   36   56 1

#	End of record

