#	Name: ASD00360015
#	Creating user name:	WinNT
#	Creation time:	15. 06. 2019 18:35

#	Modifying user name:	WinNT
#	Modification time:	15. 06. 2019 18:35

#	Program:	/corina/corina34_cracker 3.40 0067  02.08.2006

@<TRIPOS>MOLECULE
ASD00360015
  39   42    0    0    0
SMALL
NO_CHARGES


@<TRIPOS>ATOM
   1 C1            -0.0169     1.3973     0.0097 C.ar    
   2 C2             0.0021    -0.0041     0.0020 C.ar    
   3 C3             1.2204    -0.6877    -0.0139 C.ar    
   4 C4             2.4191     0.0150    -0.0213 C.ar    
   5 C5             2.4124     1.4048    -0.0124 C.ar    
   6 C6             1.1874     2.1045     0.0020 C.ar    
   7 C7             1.1880     3.5783     0.0104 C.2     
   8 C8             3.6836     2.1591    -0.0171 C.2     
   9 C9             3.6657     3.6033     0.3003 C.ar    
  10 C10            2.4407     4.2982     0.3112 C.ar    
  11 C11            2.4232     5.6621     0.6100 C.ar    
  12 C12            4.8457     4.2798     0.5852 C.ar    
  13 C13            4.8134     5.6338     0.8807 C.ar    
  14 C14            3.6174     6.3209     0.8915 C.ar    
  15 O15            1.2331    -2.0446    -0.0217 O.3     
  16 O16            4.7304     1.5993    -0.2782 O.2     
  17 O17            0.1670     4.1947    -0.2286 O.2     
  18 O18            1.2498     6.3416     0.6254 O.3     
  19 O19           -1.1975     2.0626     0.0189 O.3     
  20 C20            6.0963     6.3618     1.1894 C.3     
  21 C21           -1.2711    -0.7613     0.0112 C.ar    
  22 C22           -2.8330    -2.2439    -1.0232 C.ar    
  23 C23           -3.6281    -2.1240     0.1025 C.ar    
  24 N24           -3.2631    -1.3622     1.1155 N.ar    
  25 C25           -2.1310    -0.6887     1.1065 C.ar    
  26 C26           -1.6334    -1.5565    -1.0812 C.ar    
  27 H27            3.3574    -0.5196    -0.0336 H       
  28 H28            5.7873     3.7509     0.5767 H       
  29 H29            3.6069     7.3757     1.1229 H       
  30 H30            1.2281    -2.4329    -0.9073 H       
  31 H31            0.8113     6.3496     1.4873 H       
  32 H32           -1.5360     2.2509     0.9050 H       
  33 H33            6.5204     6.7577     0.2666 H       
  34 H34            5.8919     7.1826     1.8768 H       
  35 H35            6.8044     5.6716     1.6480 H       
  36 H36           -3.1430    -2.8709    -1.8461 H       
  37 H37           -4.5649    -2.6592     0.1507 H       
  38 H38           -1.8664    -0.0752     1.9551 H       
  39 H39           -0.9934    -1.6318    -1.9479 H       
@<TRIPOS>BOND
   1    1    2 ar
   2    1    6 ar
   3    1   19 1
   4    2    3 ar
   5    2   21 1
   6    3    4 ar
   7    3   15 1
   8    4    5 ar
   9    4   27 1
  10    5    6 ar
  11    5    8 1
  12    6    7 1
  13    7   10 1
  14    7   17 2
  15    8    9 1
  16    8   16 2
  17    9   12 ar
  18    9   10 ar
  19   10   11 ar
  20   11   14 ar
  21   11   18 1
  22   12   13 ar
  23   12   28 1
  24   13   14 ar
  25   13   20 1
  26   14   29 1
  27   15   30 1
  28   18   31 1
  29   19   32 1
  30   20   33 1
  31   20   34 1
  32   20   35 1
  33   21   26 ar
  34   21   25 ar
  35   22   23 ar
  36   22   26 ar
  37   22   36 1
  38   23   24 ar
  39   23   37 1
  40   24   25 ar
  41   25   38 1
  42   26   39 1

#	End of record

