#	Name: ASD01120024
#	Creating user name:	WinNT
#	Creation time:	15. 06. 2019 18:58

#	Modifying user name:	WinNT
#	Modification time:	15. 06. 2019 18:58

#	Program:	/corina/corina34_cracker 3.40 0067  02.08.2006

@<TRIPOS>MOLECULE
ASD01120024
  47   49    0    0    0
SMALL
NO_CHARGES


@<TRIPOS>ATOM
   1 C1            -0.0157     1.4016    -0.0388 C.ar    
   2 C2             0.0045     0.0002    -0.0604 C.ar    
   3 C3            -1.1693    -0.7205    -0.0504 C.ar    
   4 C4            -2.3943    -0.0433    -0.0185 C.ar    
   5 C5            -2.4068     1.3735     0.0031 C.ar    
   6 C6            -1.1995     2.0823    -0.0023 C.ar    
   7 N7            -3.5657    -0.6986    -0.0081 N.ar    
   8 C8            -4.6978    -0.0367     0.0216 C.ar    
   9 N9            -4.7583     1.2853     0.0426 N.ar    
  10 C10           -3.6602     2.0297     0.0348 C.ar    
  11 N11           -3.7382     3.4079     0.0575 N.pl3   
  12 C12           -4.9824     4.0393    -0.0323 C.ar    
  13 C13           -5.9875     3.4822    -0.8066 C.ar    
  14 C14           -7.2296     4.1174    -0.8923 C.ar    
  15 C15           -7.4480     5.3103    -0.1958 C.ar    
  16 C16           -6.4392     5.8549     0.5717 C.ar    
  17 C17           -5.2128     5.2231     0.6601 C.ar    
  18 C18           -8.3031     3.5335    -1.7126 C.2     
  19 O19            1.1563     2.0912    -0.0488 O.3     
  20 O20            1.1945    -0.6543    -0.0918 O.3     
  21 C21            1.0701     3.5174    -0.0257 C.3     
  22 C22            2.4790     4.1138    -0.0412 C.3     
  23 C23            1.1492    -2.0824    -0.1125 C.3     
  24 C24            2.5745    -2.6375    -0.1467 C.3     
  25 C25           -9.6411     4.2210    -1.8029 C.3     
  26 O26           -8.1110     2.4993    -2.3158 O.2     
  27 H27           -1.1449    -1.8001    -0.0675 H       
  28 H28           -1.2043     3.1621     0.0144 H       
  29 H29           -5.6220    -0.5954     0.0288 H       
  30 H30           -2.9298     3.9382     0.1357 H       
  31 H31           -5.8117     2.5609    -1.3420 H       
  32 H32           -8.4058     5.8052    -0.2591 H       
  33 H33           -6.6096     6.7764     1.1086 H       
  34 H34           -4.4277     5.6548     1.2631 H       
  35 H35            0.5199     3.8623    -0.9012 H       
  36 H36            0.5508     3.8355     0.8783 H       
  37 H37            3.0292     3.7689     0.8343 H       
  38 H38            2.9983     3.7957    -0.9452 H       
  39 H39            2.4133     5.2017    -0.0236 H       
  40 H40            0.6402    -2.4428     0.7815 H       
  41 H41            0.6080    -2.4159    -0.9980 H       
  42 H42            3.0834    -2.2772    -1.0407 H       
  43 H43            3.1156    -2.3040     0.7387 H       
  44 H44            2.5399    -3.7269    -0.1625 H       
  45 H45           -9.6250     5.1281    -1.1989 H       
  46 H46           -9.8474     4.4796    -2.8415 H       
  47 H47          -10.4188     3.5524    -1.4337 H       
@<TRIPOS>BOND
   1    1    2 ar
   2    1   19 1
   3    1    6 ar
   4    2    3 ar
   5    2   20 1
   6    3    4 ar
   7    3   27 1
   8    4    5 ar
   9    4    7 ar
  10    5    6 ar
  11    5   10 ar
  12    6   28 1
  13    7    8 ar
  14    8    9 ar
  15    8   29 1
  16    9   10 ar
  17   10   11 1
  18   11   12 1
  19   11   30 1
  20   12   13 ar
  21   12   17 ar
  22   13   14 ar
  23   13   31 1
  24   14   15 ar
  25   14   18 1
  26   15   16 ar
  27   15   32 1
  28   16   17 ar
  29   16   33 1
  30   17   34 1
  31   18   25 1
  32   18   26 2
  33   19   21 1
  34   20   23 1
  35   21   22 1
  36   21   35 1
  37   21   36 1
  38   22   37 1
  39   22   38 1
  40   22   39 1
  41   23   24 1
  42   23   40 1
  43   23   41 1
  44   24   42 1
  45   24   43 1
  46   24   44 1
  47   25   45 1
  48   25   46 1
  49   25   47 1

#	End of record

