#	Name: ASD01913785
#	Creating user name:	WinNT
#	Creation time:	15. 06. 2019 20:02

#	Modifying user name:	WinNT
#	Modification time:	15. 06. 2019 20:02

#	Program:	/corina/corina34_cracker 3.40 0067  02.08.2006

@<TRIPOS>MOLECULE
ASD01913785
  42   45    0    0    0
SMALL
NO_CHARGES


@<TRIPOS>ATOM
   1 C1            -0.0059     1.3615     0.1935 C.ar    
   2 C2            -0.0013     0.0015    -0.0621 C.ar    
   3 C3             1.1889    -0.6583    -0.3131 C.ar    
   4 C4             2.3803     0.0365    -0.3107 C.ar    
   5 C5             2.3835     1.4101    -0.0538 C.ar    
   6 C6             1.1777     2.0695     0.1993 C.ar    
   7 C7             3.6165     2.1383    -0.0491 C.1     
   8 C8             4.6274     2.7353    -0.0452 C.1     
   9 C9             5.8604     3.4635    -0.0404 C.ar    
  10 C10            5.8720     4.8426     0.2166 C.ar    
  11 C11            8.2483     4.7810    -0.0487 C.ar    
  12 N12            8.2055     3.4779    -0.2821 N.ar    
  13 C13            7.0703     2.8105    -0.2859 C.ar    
  14 C14            7.0855     5.5005     0.2102 C.ar    
  15 N15            9.4756     5.4396    -0.0561 N.am    
  16 C16            9.6476     6.7699    -0.0506 C.2     
  17 O17           10.9336     7.1490    -0.0592 O.3     
  18 C18           11.7753     5.9703    -0.0722 C.3     
  19 C19           10.7974     4.7893    -0.0648 C.3     
  20 O20            8.7234     7.5585    -0.0393 O.2     
  21 C21           12.6751     5.9356    -1.3102 C.3     
  22 C22           14.1278     5.8733    -0.7883 C.3     
  23 C23           13.9954     5.2759     0.6353 C.3     
  24 C24           12.6880     5.9233     1.1609 C.3     
  25 H25           -0.9390     1.8706     0.3845 H       
  26 H26           -0.9312    -0.5477    -0.0653 H       
  27 H27            1.1849    -1.7200    -0.5111 H       
  28 H28            3.3084    -0.4798    -0.5064 H       
  29 H29            1.1725     3.1310     0.3982 H       
  30 H30            4.9542     5.3764     0.4142 H       
  31 H31            7.0750     1.7481    -0.4803 H       
  32 H32            7.1321     6.5620     0.4036 H       
  33 H33           10.9373     4.1804     0.8285 H       
  34 H34           10.9172     4.1859    -0.9646 H       
  35 H35           12.4542     5.0520    -1.9090 H       
  36 H36           12.5291     6.8375    -1.9046 H       
  37 H37           14.7325     5.2229    -1.4202 H       
  38 H38           14.5602     6.8729    -0.7438 H       
  39 H39           13.8982     4.1911     0.5911 H       
  40 H40           14.8447     5.5634     1.2551 H       
  41 H41           12.8821     6.9300     1.5313 H       
  42 H42           12.2435     5.3068     1.9422 H       
@<TRIPOS>BOND
   1    1    2 ar
   2    1    6 ar
   3    1   25 1
   4    2    3 ar
   5    2   26 1
   6    3    4 ar
   7    3   27 1
   8    4    5 ar
   9    4   28 1
  10    5    6 ar
  11    5    7 1
  12    6   29 1
  13    7    8 3
  14    8    9 1
  15    9   10 ar
  16    9   13 ar
  17   10   14 ar
  18   10   30 1
  19   11   12 ar
  20   11   15 1
  21   11   14 ar
  22   12   13 ar
  23   13   31 1
  24   14   32 1
  25   15   16 am
  26   15   19 1
  27   16   17 1
  28   16   20 2
  29   17   18 1
  30   18   19 1
  31   18   21 1
  32   18   24 1
  33   19   33 1
  34   19   34 1
  35   21   22 1
  36   21   35 1
  37   21   36 1
  38   22   23 1
  39   22   37 1
  40   22   38 1
  41   23   24 1
  42   23   39 1
  43   23   40 1
  44   24   41 1
  45   24   42 1

#	End of record

