#	Name: ASD01916655
#	Creating user name:	WinNT
#	Creation time:	15. 06. 2019 20:07

#	Modifying user name:	WinNT
#	Modification time:	15. 06. 2019 20:07

#	Program:	/corina/corina34_cracker 3.40 0067  02.08.2006

@<TRIPOS>MOLECULE
ASD01916655
  18   18    0    0    0
SMALL
NO_CHARGES


@<TRIPOS>ATOM
   1 C1            -0.0179     1.4678     0.0101 C.3     
   2 C2             0.0021    -0.0041     0.0020 C.1     
   3 C3             0.0180    -1.1779    -0.0044 C.1     
   4 O4             1.3227     1.9624    -0.0000 O.3     
   5 C5             0.0374    -2.6098    -0.0123 C.ar    
   6 C6            -1.1601    -3.3263    -0.0047 C.ar    
   7 C7            -1.1357    -4.7054    -0.0128 C.ar    
   8 C8             0.0750    -5.3794    -0.0285 C.ar    
   9 C9             1.2669    -4.6726    -0.0361 C.ar    
  10 C10            1.2538    -3.2934    -0.0334 C.ar    
  11 F11            0.0933    -6.7302    -0.0360 F       
  12 H12           -0.5451     1.8289    -0.8729 H       
  13 H13           -0.5281     1.8193     0.9069 H       
  14 H14            1.3860     2.9273     0.0045 H       
  15 H15           -2.1042    -2.8020     0.0078 H       
  16 H16           -2.0619    -5.2609    -0.0066 H       
  17 H17            2.2078    -5.2027    -0.0479 H       
  18 H18            2.1833    -2.7436    -0.0439 H       
@<TRIPOS>BOND
   1    1    2 1
   2    1    4 1
   3    1   12 1
   4    1   13 1
   5    2    3 3
   6    3    5 1
   7    4   14 1
   8    5    6 ar
   9    5   10 ar
  10    6    7 ar
  11    6   15 1
  12    7    8 ar
  13    7   16 1
  14    8    9 ar
  15    8   11 1
  16    9   10 ar
  17    9   17 1
  18   10   18 1

#	End of record

