#	Name: ASD00310176
#	Creating user name:	WinNT
#	Creation time:	15. 06. 2019 18:33

#	Modifying user name:	WinNT
#	Modification time:	15. 06. 2019 18:33

#	Program:	/corina/corina34_cracker 3.40 0067  02.08.2006

@<TRIPOS>MOLECULE
ASD00310176
  40   43    0    0    0
SMALL
NO_CHARGES


@<TRIPOS>ATOM
   1 N1             0.2550     4.2011    -2.7835 N.pl3   
   2 C2            -0.0470     2.9189    -3.0576 C.2     
   3 C3             1.0586     2.1237    -2.8370 C.2     
   4 C4             2.1325     3.0283    -2.3834 C.ar    
   5 C5             3.4593     2.8338    -2.0107 C.ar    
   6 C6             4.2315     3.9180    -1.6231 C.ar    
   7 C7             3.6685     5.2123    -1.6086 C.ar    
   8 C8             2.3415     5.4019    -1.9822 C.ar    
   9 C9             1.5680     4.3163    -2.3703 C.ar    
  10 C10            4.4648     6.3330    -1.2081 C.1     
  11 N11            5.0965     7.2221    -0.8904 N.1     
  12 C12            5.6449     3.7184    -1.2244 C.ar    
  13 C13            6.6480     4.5097    -1.7827 C.ar    
  14 C14            7.9622     4.3192    -1.4076 C.ar    
  15 C15            8.2854     3.3452    -0.4800 C.ar    
  16 C16            7.2945     2.5570     0.0773 C.ar    
  17 C17            5.9760     2.7425    -0.2853 C.ar    
  18 C18            9.7227     3.1415    -0.0753 C.3     
  19 C19           10.4599     4.3341     0.5373 C.3     
  20 C20           10.0444     3.1558     1.4204 C.3     
  21 C21           10.5300     2.1921    -0.9630 C.3     
  22 O22            9.9936     0.8716    -0.8594 O.3     
  23 C23            1.1452     0.7193    -3.0104 C.2     
  24 O24            0.1771     0.0939    -3.3918 O.2     
  25 H25           -0.3634     4.9435    -2.8683 H       
  26 H26           -1.0092     2.5658    -3.3981 H       
  27 H27            3.8857     1.8417    -2.0229 H       
  28 H28            1.9133     6.3933    -1.9698 H       
  29 H29            6.3969     5.2700    -2.5075 H       
  30 H30            8.7401     4.9315    -1.8394 H       
  31 H31            7.5528     1.7981     0.8011 H       
  32 H32            5.2027     2.1295     0.1537 H       
  33 H33           11.5201     4.4420     0.3082 H       
  34 H34            9.9053     5.2659     0.6476 H       
  35 H35            9.2164     3.3125     2.1118 H       
  36 H36           10.8311     2.4886     1.7724 H       
  37 H37           10.4736     2.5270    -1.9987 H       
  38 H38           11.5705     2.1881    -0.6385 H       
  39 H39           10.4576     0.2153    -1.3971 H       
  40 H40            2.0724     0.2058    -2.8031 H       
@<TRIPOS>BOND
   1    1    2 1
   2    1    9 1
   3    1   25 1
   4    2    3 2
   5    2   26 1
   6    3    4 1
   7    3   23 1
   8    4    5 ar
   9    4    9 ar
  10    5    6 ar
  11    5   27 1
  12    6    7 ar
  13    6   12 1
  14    7    8 ar
  15    7   10 1
  16    8    9 ar
  17    8   28 1
  18   10   11 3
  19   12   13 ar
  20   12   17 ar
  21   13   14 ar
  22   13   29 1
  23   14   15 ar
  24   14   30 1
  25   15   16 ar
  26   15   18 1
  27   16   17 ar
  28   16   31 1
  29   17   32 1
  30   18   19 1
  31   18   20 1
  32   18   21 1
  33   19   20 1
  34   19   33 1
  35   19   34 1
  36   20   35 1
  37   20   36 1
  38   21   22 1
  39   21   37 1
  40   21   38 1
  41   22   39 1
  42   23   24 2
  43   23   40 1

#	End of record

