#	Name: ASD03740002
#	Creating user name:	WinNT
#	Creation time:	15. 06. 2019 20:46

#	Modifying user name:	WinNT
#	Modification time:	15. 06. 2019 20:46

#	Program:	/corina/corina34_cracker 3.40 0067  02.08.2006

@<TRIPOS>MOLECULE
ASD03740002
  28   30    0    0    0
SMALL
NO_CHARGES


@<TRIPOS>ATOM
   1 C1            -0.0166     1.3748     0.0096 C.ar    
   2 C2             0.0021    -0.0041     0.0020 C.ar    
   3 C3            -1.1757    -0.7433     0.0093 C.ar    
   4 C4            -2.4028    -0.1001     0.0244 C.ar    
   5 C5            -2.4452     1.3162     0.0324 C.ar    
   6 C6            -1.2480     2.0608     0.0309 C.ar    
   7 C7            -3.6906     1.9722     0.0488 C.ar    
   8 C8            -3.7209     3.3526     0.0569 C.ar    
   9 C9            -2.5354     4.0824     0.0490 C.ar    
  10 C10           -1.3194     3.4649     0.0390 C.ar    
  11 C11           -3.6730    -0.8367     0.0336 C.2     
  12 N12           -4.7969    -0.1841     0.0487 N.2     
  13 N13           -4.8498     1.2134     0.0567 N.pl3   
  14 O14            1.1505     2.0714     0.0022 O.3     
  15 C15            2.3600     1.3106    -0.0134 C.3     
  16 C16           -3.6735    -2.3437     0.0251 C.3     
  17 H17            0.9507    -0.5203    -0.0102 H       
  18 H18           -1.1338    -1.8225     0.0027 H       
  19 H19           -4.6694     3.8690     0.0690 H       
  20 H20           -2.5796     5.1615     0.0552 H       
  21 H21           -0.4136     4.0531     0.0334 H       
  22 H22           -5.7116     1.6585     0.0679 H       
  23 H23            2.4025     0.6774     0.8728 H       
  24 H24            2.3855     0.6870    -0.9071 H       
  25 H25            3.2147     1.9870    -0.0180 H       
  26 H26           -3.6628    -2.7128     1.0507 H       
  27 H27           -4.5690    -2.7039    -0.4813 H       
  28 H28           -2.7891    -2.7044    -0.5001 H       
@<TRIPOS>BOND
   1    1    2 ar
   2    1   14 1
   3    1    6 ar
   4    2    3 ar
   5    2   17 1
   6    3    4 ar
   7    3   18 1
   8    4    5 ar
   9    4   11 1
  10    5    6 ar
  11    5    7 ar
  12    6   10 ar
  13    7    8 ar
  14    7   13 1
  15    8    9 ar
  16    8   19 1
  17    9   10 ar
  18    9   20 1
  19   10   21 1
  20   11   12 2
  21   11   16 1
  22   12   13 1
  23   13   22 1
  24   14   15 1
  25   15   23 1
  26   15   24 1
  27   15   25 1
  28   16   26 1
  29   16   27 1
  30   16   28 1

#	End of record

