#	Name: ASD04480001
#	Creating user name:	WinNT
#	Creation time:	15. 06. 2019 20:49

#	Modifying user name:	WinNT
#	Modification time:	15. 06. 2019 20:49

#	Program:	/corina/corina34_cracker 3.40 0067  02.08.2006

@<TRIPOS>MOLECULE
ASD04480001
  71   72    0    0    0
SMALL
NO_CHARGES


@<TRIPOS>ATOM
   1 Cl1           -2.4012     2.6967    -1.4535 Cl      
   2 C2            -1.7031     4.1178    -0.5909 C.3     
   3 C3            -0.1762     4.0208    -0.6008 C.3     
   4 C4             0.4125     5.1580     0.2365 C.3     
   5 N5             0.5556     4.7176     1.6264 N.am    
   6 C6             0.0122     5.4443     2.6229 C.2     
   7 O7            -0.6578     6.4218     2.3649 O.2     
   8 C8             0.2370     5.0423     4.0578 C.3     
   9 C9             1.6693     5.3918     4.4669 C.3     
  10 C10            1.9306     4.8865     5.8624 C.ar    
  11 C11            2.3484     3.5835     6.0588 C.ar    
  12 C12            2.5880     3.1199     7.3388 C.ar    
  13 C13            2.4103     3.9595     8.4225 C.ar    
  14 C14            1.9934     5.2628     8.2261 C.ar    
  15 C15            1.7579     5.7276     6.9457 C.ar    
  16 N16           -0.7084     5.7617     4.9218 N.3     
  17 C17            1.2893     3.4872     1.9330 C.3     
  18 C18            2.2243     3.1634     0.7964 C.2     
  19 O19            1.8986     3.4096    -0.3456 O.2     
  20 N20            3.4224     2.6002     1.0490 N.am    
  21 C21            0.2989     2.3365     2.1223 C.3     
  22 C22           -0.8032     2.7704     3.0541 C.ar    
  23 C23           -1.6186     3.8331     2.7126 C.ar    
  24 C24           -2.6295     4.2312     3.5673 C.ar    
  25 C25           -2.8252     3.5663     4.7633 C.ar    
  26 C26           -2.0103     2.5030     5.1045 C.ar    
  27 C27           -1.0022     2.1022     4.2477 C.ar    
  28 C28            1.7845     5.5438    -0.3201 C.3     
  29 C29            2.0759     7.0087     0.0116 C.3     
  30 C30            3.3894     7.4299    -0.6502 C.3     
  31 N31            3.7293     8.7936    -0.2367 N.pl3   
  32 C32            4.8139     9.4236    -0.7826 C.cat   
  33 N33            5.5018     8.8375    -1.7610 N.pl3   
  34 N34            5.1820    10.6231    -0.3357 N.pl3   
  35 O35            0.2989     4.1235    -1.9446 O.3     
  36 H36           -2.0122     5.0350    -1.0924 H       
  37 H37           -2.0598     4.1289     0.4390 H       
  38 H38            0.1298     3.0633    -0.1794 H       
  39 H39           -0.2520     6.0211     0.1954 H       
  40 H40            0.0808     3.9687     4.1630 H       
  41 H41            2.3693     4.9245     3.7743 H       
  42 H42            1.8006     6.4735     4.4416 H       
  43 H43            2.4873     2.9275     5.2121 H       
  44 H44            2.9138     2.1017     7.4923 H       
  45 H45            2.5969     3.5972     9.4227 H       
  46 H46            1.8542     5.9187     9.0728 H       
  47 H47            1.4321     6.7458     6.7922 H       
  48 H48           -0.7428     6.7414     4.6831 H       
  49 H49           -1.6269     5.3462     4.8775 H       
  50 H50            1.8645     3.6258     2.8485 H       
  51 H51            3.6829     2.4033     1.9623 H       
  52 H52            4.0243     2.3918     0.3173 H       
  53 H53           -0.1279     2.0621     1.1577 H       
  54 H54            0.8173     1.4773     2.5480 H       
  55 H55           -1.4657     4.3526     1.7781 H       
  56 H56           -3.2662     5.0618     3.3008 H       
  57 H57           -3.6146     3.8777     5.4314 H       
  58 H58           -2.1630     1.9838     6.0390 H       
  59 H59           -0.3656     1.2715     4.5142 H       
  60 H60            2.5497     4.9105     0.1287 H       
  61 H61            1.7890     5.4083    -1.4016 H       
  62 H62            1.2645     7.6339    -0.3610 H       
  63 H63            2.1590     7.1270     1.0920 H       
  64 H64            4.1844     6.7491    -0.3457 H       
  65 H65            3.2775     7.3961    -1.7339 H       
  66 H66            3.1852     9.2499     0.4241 H       
  67 H67            5.2794     7.9344    -2.0367 H       
  68 H68            6.2252     9.3137    -2.1979 H       
  69 H69            4.6810    11.0499     0.3769 H       
  70 H70            5.9511    11.0698    -0.7227 H       
  71 H71            1.2609     4.0699    -2.0268 H       
@<TRIPOS>BOND
   1    1    2 1
   2    2    3 1
   3    2   36 1
   4    2   37 1
   5    3    4 1
   6    3   35 1
   7    3   38 1
   8    4    5 1
   9    4   28 1
  10    4   39 1
  11    5    6 am
  12    5   17 1
  13    6    7 2
  14    6    8 1
  15    8    9 1
  16    8   16 1
  17    8   40 1
  18    9   10 1
  19    9   41 1
  20    9   42 1
  21   10   11 ar
  22   10   15 ar
  23   11   12 ar
  24   11   43 1
  25   12   13 ar
  26   12   44 1
  27   13   14 ar
  28   13   45 1
  29   14   15 ar
  30   14   46 1
  31   15   47 1
  32   16   48 1
  33   16   49 1
  34   17   18 1
  35   17   21 1
  36   17   50 1
  37   18   19 2
  38   18   20 am
  39   20   51 1
  40   20   52 1
  41   21   22 1
  42   21   53 1
  43   21   54 1
  44   22   23 ar
  45   22   27 ar
  46   23   24 ar
  47   23   55 1
  48   24   25 ar
  49   24   56 1
  50   25   26 ar
  51   25   57 1
  52   26   27 ar
  53   26   58 1
  54   27   59 1
  55   28   29 1
  56   28   60 1
  57   28   61 1
  58   29   30 1
  59   29   62 1
  60   29   63 1
  61   30   31 1
  62   30   64 1
  63   30   65 1
  64   31   32 ar
  65   31   66 1
  66   32   33 ar
  67   32   34 ar
  68   33   67 1
  69   33   68 1
  70   34   69 1
  71   34   70 1
  72   35   71 1

#	End of record

