#	Name: ASD01150489
#	Creating user name:	WinNT
#	Creation time:	15. 06. 2019 19:04

#	Modifying user name:	WinNT
#	Modification time:	15. 06. 2019 19:04

#	Program:	/corina/corina34_cracker 3.40 0067  02.08.2006

@<TRIPOS>MOLECULE
ASD01150489
  45   47    0    0    0
SMALL
NO_CHARGES


@<TRIPOS>ATOM
   1 C1             1.9144     1.4016     0.9687 C.ar    
   2 C2             1.9596     0.0213     0.9430 C.ar    
   3 C3             0.4926     0.0046    -0.9573 C.ar    
   4 C4             0.4445     1.3911    -0.9341 C.ar    
   5 C5             1.1563     2.0910     0.0298 C.ar    
   6 N6             1.1105     3.4892     0.0567 N.am    
   7 C7            -0.0780     4.1147    -0.0078 C.2     
   8 N8            -0.1589     5.4581     0.0161 N.am    
   9 C9             0.9636     6.2013     0.1061 C.2     
  10 C10            2.2667     5.5231     0.1770 C.2     
  11 N11            2.3024     4.2168     0.1563 N.2     
  12 O12            0.8987     7.4163     0.1278 O.2     
  13 C13           -1.4670     6.1139    -0.0561 C.3     
  14 O14           -1.0968     3.4557    -0.0895 O.2     
  15 C15           -2.0092     6.3079     1.3365 C.ar    
  16 O16            3.4151     6.2432     0.2677 O.3     
  17 C17            4.6386     5.5078     0.3321 C.3     
  18 C18            1.2519    -0.6785    -0.0157 C.ar    
  19 C19           -1.9968     7.5632     1.9141 C.ar    
  20 C20           -2.4944     7.7422     3.1914 C.ar    
  21 C21           -3.0054     6.6648     3.8928 C.ar    
  22 C22           -3.0186     5.4074     3.3161 C.ar    
  23 C23           -2.5252     5.2293     2.0352 C.ar    
  24 F24           -2.5379     4.0020     1.4706 F       
  25 Cl25          -3.6295     6.8905     5.4970 Cl      
  26 N26           -0.2233    -0.7049    -1.9279 N.am    
  27 C27            0.2666    -1.8622    -2.4149 C.2     
  28 C28           -0.5545    -2.6831    -3.3755 C.3     
  29 O29            1.3684    -2.2429    -2.0799 O.2     
  30 H30            2.4650     1.9454     1.7220 H       
  31 H31            2.5497    -0.5122     1.6735 H       
  32 H32           -0.1453     1.9245    -1.6649 H       
  33 H33           -1.3610     7.0833    -0.5431 H       
  34 H34           -2.1539     5.4921    -0.6301 H       
  35 H35            5.4764     6.2016     0.4019 H       
  36 H36            4.6282     4.8614     1.2097 H       
  37 H37            4.7446     4.8993    -0.5660 H       
  38 H38            1.2893    -1.7577    -0.0331 H       
  39 H39           -1.5977     8.4049     1.3676 H       
  40 H40           -2.4839     8.7236     3.6421 H       
  41 H41           -3.4174     4.5661     3.8634 H       
  42 H42           -1.0722    -0.3638    -2.2503 H       
  43 H43           -0.3365    -2.3725    -4.3973 H       
  44 H44           -0.3069    -3.7379    -3.2557 H       
  45 H45           -1.6140    -2.5328    -3.1682 H       
@<TRIPOS>BOND
   1    1    2 ar
   2    1    5 ar
   3    1   30 1
   4    2   18 ar
   5    2   31 1
   6    3    4 ar
   7    3   26 1
   8    3   18 ar
   9    4    5 ar
  10    4   32 1
  11    5    6 1
  12    6    7 am
  13    6   11 1
  14    7    8 am
  15    7   14 2
  16    8    9 am
  17    8   13 1
  18    9   10 1
  19    9   12 2
  20   10   11 2
  21   10   16 1
  22   13   15 1
  23   13   33 1
  24   13   34 1
  25   15   19 ar
  26   15   23 ar
  27   16   17 1
  28   17   35 1
  29   17   36 1
  30   17   37 1
  31   18   38 1
  32   19   20 ar
  33   19   39 1
  34   20   21 ar
  35   20   40 1
  36   21   22 ar
  37   21   25 1
  38   22   23 ar
  39   22   41 1
  40   23   24 1
  41   26   27 am
  42   26   42 1
  43   27   28 1
  44   27   29 2
  45   28   43 1
  46   28   44 1
  47   28   45 1

#	End of record

