#	Name: ASD01916763
#	Creating user name:	WinNT
#	Creation time:	15. 06. 2019 20:07

#	Modifying user name:	WinNT
#	Modification time:	15. 06. 2019 20:07

#	Program:	/corina/corina34_cracker 3.40 0067  02.08.2006

@<TRIPOS>MOLECULE
ASD01916763
  60   64    0    0    0
SMALL
NO_CHARGES


@<TRIPOS>ATOM
   1 C1             0.0004     1.3393     0.1664 C.ar    
   2 C2             0.0361    -0.0229     0.4322 C.ar    
   3 C3             1.2541    -0.6726     0.5787 C.ar    
   4 C4             2.4326     0.0339     0.4611 C.ar    
   5 C5             2.4000     1.4014     0.1943 C.ar    
   6 C6             1.1757     2.0510     0.0473 C.ar    
   7 C7             3.6662     2.1646     0.0677 C.2     
   8 N8             4.8967     1.6540     0.1878 N.2     
   9 N9             3.7608     3.4521    -0.1866 N.2     
  10 N10            5.1300     3.7620    -0.2211 N.pl3   
  11 C11            5.7904     2.6054     0.0182 C.2     
  12 C12            7.2596     2.4393     0.0796 C.ar    
  13 C13            8.0808     3.5453     0.3000 C.ar    
  14 O14           -1.1235    -0.7213     0.5495 O.3     
  15 C15           -1.0137    -2.1195     0.8234 C.3     
  16 F16           -0.3024    -2.7423    -0.2078 F       
  17 F17           -0.3384    -2.3059     2.0344 F       
  18 C18            5.7259     5.0769    -0.4709 C.3     
  19 C19            5.8537     5.8259     0.8306 C.2     
  20 O20            5.4836     5.3120     1.8649 O.2     
  21 N21            6.3794     7.0668     0.8451 N.am    
  22 C22            6.5132     7.8153     2.1041 C.3     
  23 C23            7.9544     8.3238     2.2172 C.3     
  24 N24            8.3002     9.0792     1.0057 N.3     
  25 C25            8.2629     8.2212    -0.1861 C.3     
  26 C26            6.8400     7.7061    -0.3969 C.3     
  27 C27            9.5400     9.6935     1.1386 C.ar    
  28 C28           10.0460    10.4589     0.0926 C.ar    
  29 N29           10.2265     9.5496     2.2616 N.ar    
  30 C30           11.2806    11.0648     0.2386 C.ar    
  31 C31           11.9707    10.8844     1.4302 C.ar    
  32 C32           11.4067    10.1161     2.4286 C.ar    
  33 C33            7.8288     1.1754    -0.0770 C.ar    
  34 C34            9.1993     1.0272    -0.0187 C.ar    
  35 C35           10.0087     2.1287     0.1944 C.ar    
  36 C36            9.4500     3.3840     0.3561 C.ar    
  37 H37           -0.9485     1.8413     0.0485 H       
  38 H38            1.2788    -1.7324     0.7854 H       
  39 H39            3.3799    -0.4719     0.5758 H       
  40 H40            1.1474     3.1105    -0.1597 H       
  41 H41            7.6458     4.5257     0.4260 H       
  42 H42           -2.0103    -2.5556     0.8923 H       
  43 H43            6.7129     4.9499    -0.9155 H       
  44 H44            5.0897     5.6404    -1.1534 H       
  45 H45            5.8256     8.6610     2.1021 H       
  46 H46            6.2892     7.1596     2.9455 H       
  47 H47            8.0437     8.9728     3.0884 H       
  48 H48            8.6318     7.4765     2.3233 H       
  49 H49            8.5760     8.7958    -1.0578 H       
  50 H50            8.9360     7.3754    -0.0465 H       
  51 H51            6.8301     6.9800    -1.2098 H       
  52 H52            6.1808     8.5398    -0.6388 H       
  53 H53            9.4824    10.5779    -0.8210 H       
  54 H54           11.6988    11.6644    -0.5564 H       
  55 H55           12.9371    11.3440     1.5759 H       
  56 H56           11.9397     9.9736     3.3569 H       
  57 H57            7.1979     0.3147    -0.2430 H       
  58 H58            9.6412     0.0491    -0.1394 H       
  59 H59           11.0809     2.0075     0.2395 H       
  60 H60           10.0871     4.2401     0.5218 H       
@<TRIPOS>BOND
   1    1    2 ar
   2    1    6 ar
   3    1   37 1
   4    2    3 ar
   5    2   14 1
   6    3    4 ar
   7    3   38 1
   8    4    5 ar
   9    4   39 1
  10    5    6 ar
  11    5    7 1
  12    6   40 1
  13    7    8 1
  14    7    9 2
  15    8   11 2
  16    9   10 1
  17   10   11 1
  18   10   18 1
  19   11   12 1
  20   12   13 ar
  21   12   33 ar
  22   13   36 ar
  23   13   41 1
  24   14   15 1
  25   15   16 1
  26   15   17 1
  27   15   42 1
  28   18   19 1
  29   18   43 1
  30   18   44 1
  31   19   20 2
  32   19   21 am
  33   21   22 1
  34   21   26 1
  35   22   23 1
  36   22   45 1
  37   22   46 1
  38   23   24 1
  39   23   47 1
  40   23   48 1
  41   24   25 1
  42   24   27 1
  43   25   26 1
  44   25   49 1
  45   25   50 1
  46   26   51 1
  47   26   52 1
  48   27   28 ar
  49   27   29 ar
  50   28   30 ar
  51   28   53 1
  52   29   32 ar
  53   30   31 ar
  54   30   54 1
  55   31   32 ar
  56   31   55 1
  57   32   56 1
  58   33   34 ar
  59   33   57 1
  60   34   35 ar
  61   34   58 1
  62   35   36 ar
  63   35   59 1
  64   36   60 1

#	End of record

