#	Name: ASD02408443
#	Creating user name:	WinNT
#	Creation time:	15. 06. 2019 20:21

#	Modifying user name:	WinNT
#	Modification time:	15. 06. 2019 20:21

#	Program:	/corina/corina34_cracker 3.40 0067  02.08.2006

@<TRIPOS>MOLECULE
ASD02408443
  30   30    0    0    0
SMALL
NO_CHARGES


@<TRIPOS>ATOM
   1 C1            -0.0168     1.3888     0.0097 C.2     
   2 C2             0.0021    -0.0041     0.0020 C.2     
   3 N3            -1.2812    -0.4183     0.0120 N.pl3   
   4 N4            -2.1111     0.7078     0.0260 N.2     
   5 C5            -1.3754     1.7831     0.0310 C.2     
   6 C6            -1.7305    -1.8126     0.0084 C.3     
   7 C7             1.1508     2.2782     0.0033 C.2     
   8 N8             1.1232    -0.8087    -0.0137 N.pl3   
   9 C9            -2.5613    -2.0840     1.2642 C.3     
  10 C10           -2.9256    -3.5688     1.3237 C.3     
  11 C11           -1.7212    -1.9197    -2.4878 C.3     
  12 C12           -2.5854    -2.0697    -1.2341 C.3     
  13 O13            2.2733     1.8086    -0.0099 O.2     
  14 N14            0.9796     3.6150     0.0121 N.am    
  15 H15           -1.7398     2.7997     0.0420 H       
  16 H16           -0.8638    -2.4736    -0.0037 H       
  17 H17            2.0070    -0.4090    -0.0202 H       
  18 H18            1.0274    -1.7740    -0.0182 H       
  19 H19           -1.9821    -1.8163     2.1479 H       
  20 H20           -3.4729    -1.4872     1.2327 H       
  21 H21           -3.5175    -3.7622     2.2183 H       
  22 H22           -3.5048    -3.8365     0.4399 H       
  23 H23           -2.0141    -4.1656     1.3551 H       
  24 H24           -2.3303    -2.1028    -3.3730 H       
  25 H25           -1.3140    -0.9095    -2.5296 H       
  26 H26           -0.9037    -2.6398    -2.4539 H       
  27 H27           -2.9926    -3.0799    -1.1923 H       
  28 H28           -3.4029    -1.3496    -1.2680 H       
  29 H29            0.0848     3.9894     0.0227 H       
  30 H30            1.7512     4.2028     0.0079 H       
@<TRIPOS>BOND
   1    1    2 2
   2    1    7 1
   3    1    5 1
   4    2    3 1
   5    2    8 1
   6    3    4 1
   7    3    6 1
   8    4    5 2
   9    5   15 1
  10    6    9 1
  11    6   12 1
  12    6   16 1
  13    7   13 2
  14    7   14 am
  15    8   17 1
  16    8   18 1
  17    9   10 1
  18    9   19 1
  19    9   20 1
  20   10   21 1
  21   10   22 1
  22   10   23 1
  23   11   12 1
  24   11   24 1
  25   11   25 1
  26   11   26 1
  27   12   27 1
  28   12   28 1
  29   14   29 1
  30   14   30 1

#	End of record

