#	Name: ASD03090396
#	Creating user name:	WinNT
#	Creation time:	15. 06. 2019 20:28

#	Modifying user name:	WinNT
#	Modification time:	15. 06. 2019 20:28

#	Program:	/corina/corina34_cracker 3.40 0067  02.08.2006

@<TRIPOS>MOLECULE
ASD03090396
  40   42    0    0    0
SMALL
NO_CHARGES


@<TRIPOS>ATOM
   1 C1            -0.0179     1.4718     0.0101 C.2     
   2 C2             0.0021    -0.0041     0.0020 C.ar    
   3 C3             1.2205    -0.6880    -0.0133 C.ar    
   4 C4             1.2349    -2.0650    -0.0209 C.ar    
   5 C5             0.0396    -2.7744    -0.0138 C.ar    
   6 C6            -1.1744    -2.0978     0.0010 C.ar    
   7 C7            -1.1973    -0.7210     0.0154 C.ar    
   8 O8             1.0266     2.0940     0.0035 O.2     
   9 N9            -1.1942     2.1298     0.0193 N.am    
  10 C10           -1.2140     3.5946     0.0273 C.3     
  11 N11           -6.5411     5.3986     0.3357 N.pl3   
  12 C12           -6.6944     5.4451     1.6946 C.2     
  13 C13           -5.5590     5.0573     2.2967 C.2     
  14 C14           -4.6003     4.7362     1.2367 C.ar    
  15 C15           -3.2778     4.2883     1.2273 C.ar    
  16 C16           -2.6415     4.0776     0.0367 C.ar    
  17 C17           -3.2993     4.3052    -1.1644 C.ar    
  18 C18           -4.6038     4.7476    -1.1782 C.ar    
  19 C19           -5.2711     4.9688     0.0224 C.ar    
  20 O20            0.0580    -4.1314    -0.0217 O.3     
  21 C21           -1.2062    -4.7974    -0.0137 C.3     
  22 C22           -0.9852    -6.3113    -0.0245 C.3     
  23 H23            2.1496    -0.1375    -0.0195 H       
  24 H24            2.1762    -2.5943    -0.0327 H       
  25 H25           -2.1010    -2.6526     0.0061 H       
  26 H26           -2.1409    -0.1960     0.0317 H       
  27 H27           -2.0275     1.6334     0.0205 H       
  28 H28           -0.7010     3.9600     0.9169 H       
  29 H29           -0.7094     3.9697    -0.8630 H       
  30 H30           -7.2264     5.6300    -0.3107 H       
  31 H31           -7.5952     5.7492     2.2068 H       
  32 H32           -5.3854     4.9941     3.3608 H       
  33 H33           -2.7594     4.1099     2.1578 H       
  34 H34           -2.7830     4.1341    -2.0975 H       
  35 H35           -5.1068     4.9222    -2.1178 H       
  36 H36           -1.7588    -4.5172     0.8831 H       
  37 H37           -1.7754    -4.5070    -0.8968 H       
  38 H38           -0.4160    -6.6017     0.8586 H       
  39 H39           -1.9496    -6.8193    -0.0184 H       
  40 H40           -0.4326    -6.5915    -0.9213 H       
@<TRIPOS>BOND
   1    1    2 1
   2    1    8 2
   3    1    9 am
   4    2    3 ar
   5    2    7 ar
   6    3    4 ar
   7    3   23 1
   8    4    5 ar
   9    4   24 1
  10    5    6 ar
  11    5   20 1
  12    6    7 ar
  13    6   25 1
  14    7   26 1
  15    9   10 1
  16    9   27 1
  17   10   16 1
  18   10   28 1
  19   10   29 1
  20   11   12 1
  21   11   19 1
  22   11   30 1
  23   12   13 2
  24   12   31 1
  25   13   14 1
  26   13   32 1
  27   14   15 ar
  28   14   19 ar
  29   15   16 ar
  30   15   33 1
  31   16   17 ar
  32   17   18 ar
  33   17   34 1
  34   18   19 ar
  35   18   35 1
  36   20   21 1
  37   21   22 1
  38   21   36 1
  39   21   37 1
  40   22   38 1
  41   22   39 1
  42   22   40 1

#	End of record

