#	Name: ASD03331309
#	Creating user name:	WinNT
#	Creation time:	15. 06. 2019 20:38

#	Modifying user name:	WinNT
#	Modification time:	15. 06. 2019 20:38

#	Program:	/corina/corina34_cracker 3.40 0067  02.08.2006

@<TRIPOS>MOLECULE
ASD03331309
  61   63    0    0    0
SMALL
NO_CHARGES


@<TRIPOS>ATOM
   1 C1            -0.5416     1.2826    -0.1019 C.3     
   2 C2            -0.4279    -0.2138    -0.2501 C.2     
   3 C3             0.7453    -0.8565    -0.4648 C.2     
   4 C4             2.0689    -0.1421    -0.5841 C.3     
   5 C5             1.7802     1.3468    -0.8215 C.3     
   6 N6             0.8019     1.8236     0.1658 N.3     
   7 N7            -0.8956    -2.3624    -0.3749 N.2     
   8 N8             0.4864    -2.1834    -0.5437 N.am    
   9 C9            -1.4466    -1.1784    -0.1985 C.2     
  10 C10            1.3940    -3.1586    -0.7481 C.2     
  11 O11            2.5686    -2.8772    -0.8805 O.2     
  12 N12            0.9988    -4.4458    -0.8055 N.am    
  13 C13           -2.8900    -0.9117     0.0168 C.ar    
  14 C14           -3.6165    -1.6833     0.9250 C.ar    
  15 C15           -4.9608    -1.4309     1.1227 C.ar    
  16 C16           -5.5871    -0.4145     0.4210 C.ar    
  17 C17           -4.8689     0.3547    -0.4832 C.ar    
  18 C18           -3.5231     0.1135    -0.6827 C.ar    
  19 F19           -5.4850     1.3447    -1.1654 F       
  20 F20           -6.9015    -0.1715     0.6170 F       
  21 F21           -3.0066    -2.6757     1.6095 F       
  22 C22            0.7778     3.2915     0.2166 C.3     
  23 C23            1.3079    -6.7007    -1.6475 C.2     
  24 C24            1.9854    -5.5058    -1.0276 C.3     
  25 C25            2.6094    -5.9100     0.3096 C.3     
  26 C26            1.5092    -6.3733     1.2665 C.3     
  27 O27            0.1012    -6.8095    -1.5933 O.2     
  28 C28            3.6032    -7.0513     0.0843 C.3     
  29 C29            3.3398    -4.7097     0.9151 C.3     
  30 N30            2.0431    -7.6485    -2.2622 N.am    
  31 C31            1.3933    -8.8483    -2.7954 C.3     
  32 C32            2.4450    -9.7552    -3.4375 C.3     
  33 O33            3.3444   -10.2274    -2.4325 O.3     
  34 H34           -0.9348     1.7142    -1.0224 H       
  35 H35           -1.2057     1.5201     0.7290 H       
  36 H36            2.6389    -0.2652     0.3368 H       
  37 H37            2.6324    -0.5473    -1.4245 H       
  38 H38            2.7042     1.9162    -0.7209 H       
  39 H39            1.3782     1.4829    -1.8255 H       
  40 H40            0.0611    -4.6704    -0.6998 H       
  41 H41           -5.5239    -2.0274     1.8252 H       
  42 H42           -2.9638     0.7157    -1.3833 H       
  43 H43            0.1055     3.6166     1.0105 H       
  44 H44            1.7824     3.6648     0.4156 H       
  45 H45            0.4276     3.6824    -0.7388 H       
  46 H46            2.7649    -5.1421    -1.6972 H       
  47 H47            0.9888    -7.2284     0.8351 H       
  48 H48            1.9537    -6.6613     2.2191 H       
  49 H49            0.8011    -5.5603     1.4270 H       
  50 H50            4.4137    -6.7059    -0.5576 H       
  51 H51            4.0107    -7.3727     1.0428 H       
  52 H52            3.0933    -7.8882    -0.3928 H       
  53 H53            2.6318    -3.8967     1.0756 H       
  54 H54            3.7844    -4.9977     1.8677 H       
  55 H55            4.1237    -4.3797     0.2334 H       
  56 H56            3.0024    -7.5362    -2.3515 H       
  57 H57            0.8977    -9.3835    -1.9854 H       
  58 H58            0.6561    -8.5597    -3.5447 H       
  59 H59            1.9521   -10.6039    -3.9118 H       
  60 H60            3.0010    -9.1925    -4.1873 H       
  61 H61            4.0394   -10.8096    -2.7687 H       
@<TRIPOS>BOND
   1    1    2 1
   2    1    6 1
   3    1   34 1
   4    1   35 1
   5    2    3 2
   6    2    9 1
   7    3    4 1
   8    3    8 1
   9    4    5 1
  10    4   36 1
  11    4   37 1
  12    5    6 1
  13    5   38 1
  14    5   39 1
  15    6   22 1
  16    7    8 1
  17    7    9 2
  18    8   10 am
  19    9   13 1
  20   10   11 2
  21   10   12 am
  22   12   24 1
  23   12   40 1
  24   13   14 ar
  25   13   18 ar
  26   14   15 ar
  27   14   21 1
  28   15   16 ar
  29   15   41 1
  30   16   17 ar
  31   16   20 1
  32   17   18 ar
  33   17   19 1
  34   18   42 1
  35   22   43 1
  36   22   44 1
  37   22   45 1
  38   23   27 2
  39   23   30 am
  40   23   24 1
  41   24   25 1
  42   24   46 1
  43   25   26 1
  44   25   28 1
  45   25   29 1
  46   26   47 1
  47   26   48 1
  48   26   49 1
  49   28   50 1
  50   28   51 1
  51   28   52 1
  52   29   53 1
  53   29   54 1
  54   29   55 1
  55   30   31 1
  56   30   56 1
  57   31   32 1
  58   31   57 1
  59   31   58 1
  60   32   33 1
  61   32   59 1
  62   32   60 1
  63   33   61 1

#	End of record

