#	Name: ASD01148919
#	Creating user name:	WinNT
#	Creation time:	15. 06. 2019 19:03

#	Modifying user name:	WinNT
#	Modification time:	15. 06. 2019 19:03

#	Program:	/corina/corina34_cracker 3.40 0067  02.08.2006

@<TRIPOS>MOLECULE
ASD01148919
  41   43    0    0    0
SMALL
NO_CHARGES


@<TRIPOS>ATOM
   1 C1            -0.4571     0.2902    -0.4675 C.ar    
   2 C2            -0.1351    -1.0544    -0.4500 C.ar    
   3 C3             1.1842    -1.4487    -0.3413 C.ar    
   4 C4             2.1875    -0.4933    -0.2500 C.ar    
   5 C5             1.8611     0.8561    -0.2682 C.ar    
   6 C6             0.5399     1.2441    -0.3767 C.ar    
   7 S7            -2.1406     0.7893    -0.6130 S.o2    
   8 O8            -2.1241     2.1060    -1.1472 O.2     
   9 O9            -2.8275    -0.2911    -1.2297 O.2     
  10 N10           -2.7491     0.9151     0.9220 N.am    
  11 C11           -2.2193     1.9271     1.8393 C.3     
  12 N12            3.5269    -0.8902    -0.1391 N.pl3   
  13 C13            4.4998    -0.7045    -1.0907 C.2     
  14 C14            5.6619    -1.2265    -0.6076 C.2     
  15 C15            5.3907    -1.7432     0.6702 C.2     
  16 C16            4.0851    -1.5210     0.9353 C.2     
  17 C17            3.3651    -1.9078     2.2014 C.3     
  18 C18            4.3181    -0.0545    -2.4059 C.ar    
  19 C19            5.4201     0.4565    -3.0931 C.ar    
  20 C20            5.2430     1.0628    -4.3219 C.ar    
  21 C21            3.9743     1.1635    -4.8708 C.ar    
  22 C22            2.8795     0.6589    -4.1930 C.ar    
  23 C23            3.0445     0.0456    -2.9680 C.ar    
  24 F24            6.3080     1.5587    -4.9891 F       
  25 H25           -0.9159    -1.7971    -0.5211 H       
  26 H26            1.4350    -2.4991    -0.3270 H       
  27 H27            2.6393     1.6015    -0.1970 H       
  28 H28            0.2854     2.2936    -0.3906 H       
  29 H29           -3.4563     0.3187     1.2138 H       
  30 H30           -2.7385     1.8583     2.7953 H       
  31 H31           -1.1535     1.7570     1.9916 H       
  32 H32           -2.3718     2.9188     1.4135 H       
  33 H33            6.6159    -1.2405    -1.1138 H       
  34 H34            6.1000    -2.2272     1.3251 H       
  35 H35            2.9557    -2.9122     2.0942 H       
  36 H36            4.0642    -1.8877     3.0375 H       
  37 H37            2.5548    -1.2031     2.3883 H       
  38 H38            6.4087     0.3785    -2.6653 H       
  39 H39            3.8401     1.6382    -5.8316 H       
  40 H40            1.8934     0.7411    -4.6258 H       
  41 H41            2.1888    -0.3524    -2.4428 H       
@<TRIPOS>BOND
   1    1    2 ar
   2    1    6 ar
   3    1    7 1
   4    2    3 ar
   5    2   25 1
   6    3    4 ar
   7    3   26 1
   8    4    5 ar
   9    4   12 1
  10    5    6 ar
  11    5   27 1
  12    6   28 1
  13    7    8 2
  14    7    9 2
  15    7   10 am
  16   10   11 1
  17   10   29 1
  18   11   30 1
  19   11   31 1
  20   11   32 1
  21   12   13 1
  22   12   16 1
  23   13   14 2
  24   13   18 1
  25   14   15 1
  26   14   33 1
  27   15   16 2
  28   15   34 1
  29   16   17 1
  30   17   35 1
  31   17   36 1
  32   17   37 1
  33   18   19 ar
  34   18   23 ar
  35   19   20 ar
  36   19   38 1
  37   20   21 ar
  38   20   24 1
  39   21   22 ar
  40   21   39 1
  41   22   23 ar
  42   22   40 1
  43   23   41 1

#	End of record

