#	Name: ASD08170047
#	Creating user name:	WinNT
#	Creation time:	15. 06. 2019 21:17

#	Modifying user name:	WinNT
#	Modification time:	15. 06. 2019 21:17

#	Program:	/corina/corina34_cracker 3.40 0067  02.08.2006

@<TRIPOS>MOLECULE
ASD08170047
  62   66    0    0    0
SMALL
NO_CHARGES


@<TRIPOS>ATOM
   1 C1            -0.0187     1.5258     0.0104 C.3     
   2 C2             0.0021    -0.0041     0.0020 C.3     
   3 C3             0.7182    -0.4975    -1.2568 C.3     
   4 C4             2.1536     0.0321    -1.2676 C.3     
   5 C5             2.1328     1.5619    -1.2592 C.3     
   6 C6             1.4167     2.0553    -0.0004 C.3     
   7 C7             2.1456     1.5561     1.2205 C.2     
   8 C8            -1.4117    -0.5257     0.0127 C.2     
   9 N9            -2.3179    -0.2950    -0.8835 N.2     
  10 N10           -3.4479    -0.8252    -0.6938 N.2     
  11 C11           -3.6027    -1.5493     0.3734 C.2     
  12 S12           -2.1275    -1.5663     1.2441 S.3     
  13 N13            2.3561     0.3164     1.5308 N.2     
  14 S14            2.8719     2.5554     2.4797 S.3     
  15 C15            3.3747     1.1330     3.2913 C.2     
  16 N16            2.9901     0.1019     2.6013 N.2     
  17 N17            4.0817     1.0895     4.4881 N.am    
  18 C18            4.4203    -0.0980     5.0281 C.2     
  19 C19            5.1864    -0.1451     6.3250 C.3     
  20 O20            4.1084    -1.1288     4.4702 O.2     
  21 C21            5.4369    -1.5808     6.7086 C.ar    
  22 C22            4.7479    -3.5752     7.8401 C.ar    
  23 C23            4.5181    -2.2583     7.4882 C.ar    
  24 C24            6.5827    -2.2219     6.2762 C.ar    
  25 C25            6.8125    -3.5388     6.6281 C.ar    
  26 C26            5.8967    -4.2144     7.4128 C.ar    
  27 N27           -4.7706    -2.2068     0.7445 N.am    
  28 C28           -5.8684    -2.1209    -0.0328 C.2     
  29 C29           -7.1340    -2.8334     0.3693 C.3     
  30 O30           -5.8377    -1.4702    -1.0558 O.2     
  31 C31           -8.2032    -2.5785    -0.6616 C.ar    
  32 C32           -9.3210    -3.1976    -2.6864 C.ar    
  33 C33          -10.1651    -2.1111    -2.5527 C.ar    
  34 C34          -10.0241    -1.2546    -1.4768 C.ar    
  35 C35           -9.0433    -1.4885    -0.5311 C.ar    
  36 C36           -8.3402    -3.4314    -1.7408 C.ar    
  37 H37           -0.5459     1.8868    -0.8726 H       
  38 H38           -0.5289     1.8773     0.9072 H       
  39 H39            0.5293    -0.3651     0.8851 H       
  40 H40            0.7330    -1.5874    -1.2628 H       
  41 H41            0.1910    -0.1364    -2.1398 H       
  42 H42            2.6808    -0.3290    -0.3846 H       
  43 H43            2.6638    -0.3194    -2.1644 H       
  44 H44            3.1554     1.9392    -1.2670 H       
  45 H45            1.6057     1.9230    -2.1423 H       
  46 H46            1.4019     3.1452     0.0056 H       
  47 H47            4.3312     1.9139     4.9343 H       
  48 H48            6.1393     0.3699     6.2030 H       
  49 H49            4.6065     0.3442     7.1075 H       
  50 H50            4.0303    -4.1044     8.4494 H       
  51 H51            3.6210    -1.7586     7.8226 H       
  52 H52            7.2982    -1.6941     5.6631 H       
  53 H53            7.7073    -4.0399     6.2897 H       
  54 H54            6.0762    -5.2433     7.6877 H       
  55 H55           -4.7952    -2.7273     1.5626 H       
  56 H56           -6.9423    -3.9043     0.4368 H       
  57 H57           -7.4677    -2.4622     1.3383 H       
  58 H58           -9.4312    -3.8667    -3.5269 H       
  59 H59          -10.9314    -1.9284    -3.2915 H       
  60 H60          -10.6835    -0.4057    -1.3723 H       
  61 H61           -8.9336    -0.8198     0.3098 H       
  62 H62           -7.6807    -4.2803    -1.8453 H       
@<TRIPOS>BOND
   1    1    2 1
   2    1    6 1
   3    1   37 1
   4    1   38 1
   5    2    3 1
   6    2    8 1
   7    2   39 1
   8    3    4 1
   9    3   40 1
  10    3   41 1
  11    4    5 1
  12    4   42 1
  13    4   43 1
  14    5    6 1
  15    5   44 1
  16    5   45 1
  17    6    7 1
  18    6   46 1
  19    7   14 1
  20    7   13 2
  21    8    9 2
  22    8   12 1
  23    9   10 1
  24   10   11 2
  25   11   12 1
  26   11   27 1
  27   13   16 1
  28   14   15 1
  29   15   16 2
  30   15   17 1
  31   17   18 am
  32   17   47 1
  33   18   19 1
  34   18   20 2
  35   19   21 1
  36   19   48 1
  37   19   49 1
  38   21   24 ar
  39   21   23 ar
  40   22   23 ar
  41   22   26 ar
  42   22   50 1
  43   23   51 1
  44   24   25 ar
  45   24   52 1
  46   25   26 ar
  47   25   53 1
  48   26   54 1
  49   27   28 am
  50   27   55 1
  51   28   29 1
  52   28   30 2
  53   29   31 1
  54   29   56 1
  55   29   57 1
  56   31   36 ar
  57   31   35 ar
  58   32   33 ar
  59   32   36 ar
  60   32   58 1
  61   33   34 ar
  62   33   59 1
  63   34   35 ar
  64   34   60 1
  65   35   61 1
  66   36   62 1

#	End of record

