#	Name: ASD01912837
#	Creating user name:	WinNT
#	Creation time:	15. 06. 2019 20:00

#	Modifying user name:	WinNT
#	Modification time:	15. 06. 2019 20:00

#	Program:	/corina/corina34_cracker 3.40 0067  02.08.2006

@<TRIPOS>MOLECULE
ASD01912837
  42   45    0    0    0
SMALL
NO_CHARGES


@<TRIPOS>ATOM
   1 C1            -0.0165     1.3669     0.0096 C.2     
   2 N2             0.0021    -0.0041     0.0020 N.pl3   
   3 C3            -1.2024    -0.6923     0.0094 C.2     
   4 C4            -2.3629    -0.0504     0.0235 C.2     
   5 N5            -2.4359     1.3310     0.0317 N.am    
   6 C6            -1.3019     2.0669     0.0309 C.2     
   7 C7             1.3014     1.7836    -0.0008 C.2     
   8 C8             2.0550     0.6110    -0.0143 C.2     
   9 N9             1.2244    -0.4045    -0.0118 N.2     
  10 O10           -1.3487     3.2837     0.0384 O.2     
  11 C11           -3.6758     1.9626     0.0465 C.ar    
  12 C12            3.5594     0.5249    -0.0295 C.3     
  13 O13            4.1120     1.8427    -0.0282 O.3     
  14 C14            5.4672     1.9435    -0.0410 C.ar    
  15 C15            6.0711     3.1924    -0.0405 C.ar    
  16 C16            7.4489     3.2922    -0.0536 C.ar    
  17 C17            8.2259     2.1486    -0.0672 C.ar    
  18 C18            7.6265     0.9027    -0.0682 C.ar    
  19 C19            6.2492     0.7975    -0.0489 C.ar    
  20 N20           -4.7751     1.2248     0.0526 N.ar    
  21 N21           -3.7252     3.2848     0.0595 N.ar    
  22 C22           -4.8866     3.9237     0.0738 C.ar    
  23 C23           -6.0598     3.1925     0.0751 C.ar    
  24 C24           -5.9742     1.7965     0.0668 C.ar    
  25 N25           -7.1237     1.0209     0.0673 N.pl3   
  26 C26           -7.0213    -0.4405     0.0585 C.3     
  27 F27           -7.2604     3.8117     0.0900 F       
  28 H28           -1.1950    -1.7722     0.0031 H       
  29 H29           -3.2784    -0.6233     0.0285 H       
  30 H30            1.6684     2.7994     0.0008 H       
  31 H31            3.9015    -0.0135     0.8543 H       
  32 H32            3.8840    -0.0043    -0.9255 H       
  33 H33            5.4646     4.0860    -0.0302 H       
  34 H34            7.9195     4.2643    -0.0536 H       
  35 H35            9.3029     2.2287    -0.0775 H       
  36 H36            8.2356     0.0109    -0.0796 H       
  37 H37            5.7814    -0.1759    -0.0497 H       
  38 H38           -4.9159     5.0032     0.0847 H       
  39 H39           -7.9956     1.4460     0.0735 H       
  40 H40           -6.4795    -0.7721     0.9442 H       
  41 H41           -8.0211    -0.8748     0.0603 H       
  42 H42           -6.4872    -0.7619    -0.8357 H       
@<TRIPOS>BOND
   1    1    2 1
   2    1    7 2
   3    1    6 1
   4    2    3 1
   5    2    9 1
   6    3    4 2
   7    3   28 1
   8    4    5 1
   9    4   29 1
  10    5    6 am
  11    5   11 1
  12    6   10 2
  13    7    8 1
  14    7   30 1
  15    8    9 2
  16    8   12 1
  17   11   20 ar
  18   11   21 ar
  19   12   13 1
  20   12   31 1
  21   12   32 1
  22   13   14 1
  23   14   15 ar
  24   14   19 ar
  25   15   16 ar
  26   15   33 1
  27   16   17 ar
  28   16   34 1
  29   17   18 ar
  30   17   35 1
  31   18   19 ar
  32   18   36 1
  33   19   37 1
  34   20   24 ar
  35   21   22 ar
  36   22   23 ar
  37   22   38 1
  38   23   24 ar
  39   23   27 1
  40   24   25 1
  41   25   26 1
  42   25   39 1
  43   26   40 1
  44   26   41 1
  45   26   42 1

#	End of record

