#	Name: ASD01884428
#	Creating user name:	WinNT
#	Creation time:	15. 06. 2019 19:48

#	Modifying user name:	WinNT
#	Modification time:	15. 06. 2019 19:48

#	Program:	/corina/corina34_cracker 3.40 0067  02.08.2006

@<TRIPOS>MOLECULE
ASD01884428
  41   44    0    0    0
SMALL
NO_CHARGES


@<TRIPOS>ATOM
   1 C1            -0.0164     1.3569     0.0095 C.2     
   2 C2             0.0021    -0.0041     0.0020 C.2     
   3 C3             1.2453    -0.6754    -0.0135 C.2     
   4 C4             2.4114     0.0557    -0.0207 C.2     
   5 N5             2.3715     1.4108    -0.0126 N.am    
   6 C6             1.1969     2.0674     0.0017 C.2     
   7 C7             1.2933    -2.1559    -0.0214 C.ar    
   8 C8             3.6240     2.1706    -0.0200 C.3     
   9 O9             1.1848     3.2877     0.0088 O.2     
  10 C10            4.0402     2.4392    -1.4432 C.ar    
  11 C11            3.6102     3.5859    -2.0843 C.ar    
  12 C12            3.9920     3.8323    -3.3899 C.ar    
  13 C13            4.8040     2.9322    -4.0542 C.ar    
  14 C14            5.2347     1.7859    -3.4128 C.ar    
  15 C15            4.8565     1.5417    -2.1058 C.ar    
  16 C16            0.9891    -2.8749    -1.2017 C.ar    
  17 C17            1.6416    -2.8503     1.1238 C.ar    
  18 C18            1.6892    -4.2397     1.1241 C.ar    
  19 C19            1.3958    -4.9549     0.0024 C.ar    
  20 C20            1.0419    -4.2901    -1.1840 C.ar    
  21 C21            0.7342    -5.0047    -2.3549 C.ar    
  22 C22            0.3948    -4.3291    -3.4868 C.ar    
  23 C23            0.3479    -2.9368    -3.5036 C.ar    
  24 C24            0.6373    -2.2127    -2.3868 C.ar    
  25 H25           -0.9569     1.8877     0.0168 H       
  26 H26           -0.9216    -0.5636     0.0082 H       
  27 H27            3.3639    -0.4533    -0.0325 H       
  28 H28            3.4779     3.1170     0.5007 H       
  29 H29            4.4010     1.5952     0.4833 H       
  30 H30            2.9758     4.2892    -1.5653 H       
  31 H31            3.6555     4.7279    -3.8910 H       
  32 H32            5.1016     3.1244    -5.0744 H       
  33 H33            5.8688     1.0825    -3.9319 H       
  34 H34            5.1930     0.6461    -1.6046 H       
  35 H35            1.8792    -2.3073     2.0266 H       
  36 H36            1.9639    -4.7610     2.0291 H       
  37 H37            1.4396    -6.0338     0.0238 H       
  38 H38            0.7672    -6.0842    -2.3564 H       
  39 H39            0.1589    -4.8804    -4.3850 H       
  40 H40            0.0761    -2.4244    -4.4146 H       
  41 H41            0.5969    -1.1338    -2.4141 H       
@<TRIPOS>BOND
   1    1    2 2
   2    1    6 1
   3    1   25 1
   4    2    3 1
   5    2   26 1
   6    3    4 2
   7    3    7 1
   8    4    5 1
   9    4   27 1
  10    5    6 am
  11    5    8 1
  12    6    9 2
  13    7   16 ar
  14    7   17 ar
  15    8   10 1
  16    8   28 1
  17    8   29 1
  18   10   11 ar
  19   10   15 ar
  20   11   12 ar
  21   11   30 1
  22   12   13 ar
  23   12   31 1
  24   13   14 ar
  25   13   32 1
  26   14   15 ar
  27   14   33 1
  28   15   34 1
  29   16   20 ar
  30   16   24 ar
  31   17   18 ar
  32   17   35 1
  33   18   19 ar
  34   18   36 1
  35   19   20 ar
  36   19   37 1
  37   20   21 ar
  38   21   22 ar
  39   21   38 1
  40   22   23 ar
  41   22   39 1
  42   23   24 ar
  43   23   40 1
  44   24   41 1

#	End of record

