#	Name: ASD01840269
#	Creating user name:	WinNT
#	Creation time:	15. 06. 2019 19:37

#	Modifying user name:	WinNT
#	Modification time:	15. 06. 2019 19:37

#	Program:	/corina/corina34_cracker 3.40 0067  02.08.2006

@<TRIPOS>MOLECULE
ASD01840269
  37   40    0    0    0
SMALL
NO_CHARGES


@<TRIPOS>ATOM
   1 C1             1.7187     1.2820     0.2338 C.3     
   2 C2             1.2770    -0.1568     0.1586 C.ar    
   3 N3             1.3876    -0.8222    -0.9778 N.ar    
   4 N4             1.0291    -2.0455    -1.0998 N.ar    
   5 C5             0.5149    -2.7425    -0.0844 C.ar    
   6 S6            -0.0418    -4.4063    -0.0084 S.3     
   7 C7            -0.4827    -4.2708     1.6871 C.2     
   8 C8            -1.0311    -5.0293     2.7530 C.2     
   9 N9            -1.4402    -6.3668     2.6798 N.pl3   
  10 C10           -1.9918    -7.0300     3.8640 C.3     
  11 C11           -2.3513    -8.4527     3.5212 C.2     
  12 C12           -3.5934    -8.9120     3.0263 C.2     
  13 C13           -3.4786   -10.2418     2.8589 C.2     
  14 O14           -2.2398   -10.6101     3.2242 O.3     
  15 C15           -1.5501    -9.5285     3.6220 C.2     
  16 N16           -1.0903    -4.2696     3.8149 N.2     
  17 N17           -0.5921    -3.0035     3.4963 N.pl3   
  18 C18           -0.4865    -1.8631     4.4099 C.3     
  19 C19           -0.2162    -3.0181     2.1641 C.2     
  20 C20            0.3584    -2.1252     1.1581 C.ar    
  21 C21            0.7633    -0.7784     1.2771 C.ar    
  22 C22            0.6337    -0.0409     2.5850 C.3     
  23 H23            2.7704     1.3248     0.5171 H       
  24 H24            1.5850     1.7545    -0.7393 H       
  25 H25            1.1203     1.8074     0.9781 H       
  26 H26           -1.3584    -6.8541     1.8451 H       
  27 H27           -1.2494    -7.0250     4.6621 H       
  28 H28           -2.8845    -6.4992     4.1949 H       
  29 H29           -4.4671    -8.3107     2.8222 H       
  30 H30           -4.2516   -10.9014     2.4932 H       
  31 H31           -0.5266    -9.5237     3.9667 H       
  32 H32            0.5266    -1.8094     4.8084 H       
  33 H33           -0.7142    -0.9435     3.8709 H       
  34 H34           -1.1935    -1.9880     5.2301 H       
  35 H35           -0.3850     0.3317     2.6925 H       
  36 H36            0.8616    -0.7182     3.4081 H       
  37 H37            1.3306     0.7970     2.6002 H       
@<TRIPOS>BOND
   1    1    2 1
   2    1   23 1
   3    1   24 1
   4    1   25 1
   5    2   21 ar
   6    2    3 ar
   7    3    4 ar
   8    4    5 ar
   9    5   20 ar
  10    5    6 1
  11    6    7 1
  12    7   19 2
  13    7    8 1
  14    8    9 1
  15    8   16 2
  16    9   10 1
  17    9   26 1
  18   10   11 1
  19   10   27 1
  20   10   28 1
  21   11   15 2
  22   11   12 1
  23   12   13 2
  24   12   29 1
  25   13   14 1
  26   13   30 1
  27   14   15 1
  28   15   31 1
  29   16   17 1
  30   17   18 1
  31   17   19 1
  32   18   32 1
  33   18   33 1
  34   18   34 1
  35   19   20 1
  36   20   21 ar
  37   21   22 1
  38   22   35 1
  39   22   36 1
  40   22   37 1

#	End of record

