#	Name: ASD03740144
#	Creating user name:	WinNT
#	Creation time:	15. 06. 2019 20:46

#	Modifying user name:	WinNT
#	Modification time:	15. 06. 2019 20:46

#	Program:	/corina/corina34_cracker 3.40 0067  02.08.2006

@<TRIPOS>MOLECULE
ASD03740144
  64   67    0    0    0
SMALL
NO_CHARGES


@<TRIPOS>ATOM
   1 C1            -0.0168     1.3907     0.0097 C.ar    
   2 C2             0.0021    -0.0041     0.0020 C.ar    
   3 C3            -1.1618    -0.7179     0.0093 C.ar    
   4 C4            -2.3868    -0.0558     0.0245 C.ar    
   5 C5            -2.4172     1.3514     0.0329 C.ar    
   6 C6            -1.2183     2.0715     0.0306 C.ar    
   7 N7            -3.6926    -0.4799     0.0344 N.pl3   
   8 N8            -4.5366     0.6351     0.0486 N.2     
   9 C9            -3.8295     1.7321     0.0483 C.2     
  10 O10           -4.3178     3.0008     0.0605 O.3     
  11 C11           -4.1317    -1.8775     0.0297 C.3     
  12 C12           -4.2687    -2.3657     1.4489 C.ar    
  13 C13           -5.4738    -2.2306     2.1127 C.ar    
  14 C14           -5.6000    -2.6782     3.4143 C.ar    
  15 C15           -4.5201    -3.2614     4.0528 C.ar    
  16 C16           -3.3143    -3.3963     3.3879 C.ar    
  17 C17           -3.1909    -2.9535     2.0844 C.ar    
  18 C18           -5.7390     3.1488     0.0746 C.3     
  19 C19           -6.0967     4.6364     0.0869 C.3     
  20 C20           -7.6184     4.7948     0.1020 C.3     
  21 N21           -7.9619     6.2231     0.1138 N.3     
  22 C22           -7.1985     6.9430     1.1553 C.3     
  23 Cl23          -4.6778    -3.8233     5.6878 Cl      
  24 C24           -9.4012     6.4183     0.3674 C.3     
  25 C25           -9.5277     7.3222     1.6117 C.3     
  26 C26           -8.1588     8.0511     1.6548 C.3     
  27 N27            1.1878     2.1037     0.0020 N.pl3   
  28 C28            2.4642     1.3850    -0.0140 C.3     
  29 C29            1.1720     3.5686     0.0100 C.3     
  30 C30            1.1802     4.0708     1.4552 C.3     
  31 C31            2.8949     1.1425    -1.4620 C.3     
  32 H32            0.9480    -0.5252    -0.0102 H       
  33 H33           -1.1324    -1.7974     0.0029 H       
  34 H34           -1.2319     3.1514     0.0373 H       
  35 H35           -5.0946    -1.9541    -0.4754 H       
  36 H36           -3.3965    -2.4876    -0.4950 H       
  37 H37           -6.3166    -1.7750     1.6143 H       
  38 H38           -6.5414    -2.5723     3.9329 H       
  39 H39           -2.4710    -3.8515     3.8858 H       
  40 H40           -2.2497    -3.0587     1.5653 H       
  41 H41           -6.1619     2.6808    -0.8144 H       
  42 H42           -6.1454     2.6700     0.9655 H       
  43 H43           -5.6739     5.1044     0.9758 H       
  44 H44           -5.6904     5.1152    -0.8040 H       
  45 H45           -8.0413     4.3268    -0.7870 H       
  46 H46           -8.0248     4.3160     0.9929 H       
  47 H47           -6.9406     6.2681     1.9714 H       
  48 H48           -6.2983     7.3851     0.7285 H       
  49 H49           -9.8667     6.9021    -0.4913 H       
  50 H50           -9.8780     5.4567     0.5575 H       
  51 H51          -10.3412     8.0371     1.4876 H       
  52 H52           -9.6737     6.7228     2.5103 H       
  53 H53           -7.9098     8.3543     2.6718 H       
  54 H54           -8.1511     8.9075     0.9807 H       
  55 H55            3.2224     1.9795     0.4958 H       
  56 H56            2.3491     0.4285     0.4958 H       
  57 H57            2.0530     3.9443    -0.5102 H       
  58 H58            0.2732     3.9250    -0.4933 H       
  59 H59            1.1685     5.1607     1.4612 H       
  60 H60            0.2992     3.6951     1.9755 H       
  61 H61            2.0789     3.7144     1.9586 H       
  62 H62            3.8446     0.6078    -1.4740 H       
  63 H63            2.1367     0.5480    -1.9718 H       
  64 H64            3.0100     2.0991    -1.9719 H       
@<TRIPOS>BOND
   1    1    2 ar
   2    1   27 1
   3    1    6 ar
   4    2    3 ar
   5    2   32 1
   6    3    4 ar
   7    3   33 1
   8    4    5 ar
   9    4    7 1
  10    5    6 ar
  11    5    9 1
  12    6   34 1
  13    7    8 1
  14    7   11 1
  15    8    9 2
  16    9   10 1
  17   10   18 1
  18   11   12 1
  19   11   35 1
  20   11   36 1
  21   12   13 ar
  22   12   17 ar
  23   13   14 ar
  24   13   37 1
  25   14   15 ar
  26   14   38 1
  27   15   16 ar
  28   15   23 1
  29   16   17 ar
  30   16   39 1
  31   17   40 1
  32   18   19 1
  33   18   41 1
  34   18   42 1
  35   19   20 1
  36   19   43 1
  37   19   44 1
  38   20   21 1
  39   20   45 1
  40   20   46 1
  41   21   24 1
  42   21   22 1
  43   22   26 1
  44   22   47 1
  45   22   48 1
  46   24   25 1
  47   24   49 1
  48   24   50 1
  49   25   26 1
  50   25   51 1
  51   25   52 1
  52   26   53 1
  53   26   54 1
  54   27   28 1
  55   27   29 1
  56   28   31 1
  57   28   55 1
  58   28   56 1
  59   29   30 1
  60   29   57 1
  61   29   58 1
  62   30   59 1
  63   30   60 1
  64   30   61 1
  65   31   62 1
  66   31   63 1
  67   31   64 1

#	End of record

