#	Name: ASD01230720
#	Creating user name:	WinNT
#	Creation time:	15. 06. 2019 19:14

#	Modifying user name:	WinNT
#	Modification time:	15. 06. 2019 19:14

#	Program:	/corina/corina34_cracker 3.40 0067  02.08.2006

@<TRIPOS>MOLECULE
ASD01230720
  47   50    0    0    0
SMALL
NO_CHARGES


@<TRIPOS>ATOM
   1 C1             0.6948     0.6701     1.7621 C.3     
   2 N2             1.0937    -0.6143     2.3528 N.3     
   3 C3            -0.0265    -1.3823     2.8869 C.3     
   4 C4            -1.3359    -1.1123     2.1572 C.3     
   5 N5            -1.0870    -0.6826     0.7780 N.pl3   
   6 C6            -0.2173     0.3604     0.5874 C.2     
   7 C7            -1.7158    -1.3693    -0.3457 C.3     
   8 C8            -2.3904    -0.3453    -1.2598 C.3     
   9 S9            -1.1792     0.9076    -1.7568 S.o2    
  10 N10           -0.1688     1.0749    -0.4667 N.am    
  11 C11            1.9139     1.4152     1.2827 C.ar    
  12 C12            2.0032     2.7828     1.4657 C.ar    
  13 O13           -0.3425     0.4062    -2.7901 O.2     
  14 O14           -1.8019     2.1792    -1.8771 O.2     
  15 C15            2.9437     0.7291     0.6657 C.ar    
  16 C16            4.0623     1.4096     0.2254 C.ar    
  17 C17            4.1519     2.7828     0.4027 C.ar    
  18 C18            3.1196     3.4681     1.0273 C.ar    
  19 O19            5.2511     3.4546    -0.0296 O.3     
  20 C20            6.1897     2.7612    -0.7258 C.ar    
  21 C21            6.0908     2.6506    -2.1054 C.ar    
  22 C22            2.1350    -0.4245     3.3715 C.3     
  23 C23            7.2518     2.1673    -0.0590 C.ar    
  24 C24            8.2045     1.4629    -0.7691 C.ar    
  25 C25            8.1005     1.3494    -2.1433 C.ar    
  26 C26            7.0462     1.9451    -2.8108 C.ar    
  27 H27            0.1609     1.2684     2.5004 H       
  28 H28            0.2067    -2.4441     2.8075 H       
  29 H29           -0.1535    -1.1312     3.9399 H       
  30 H30           -1.9345    -2.0232     2.1463 H       
  31 H31           -1.8843    -0.3304     2.6827 H       
  32 H32           -0.9577    -1.9142    -0.9083 H       
  33 H33           -2.4627    -2.0694     0.0286 H       
  34 H34           -2.7776    -0.8483    -2.1459 H       
  35 H35           -3.2109     0.1340    -0.7258 H       
  36 H36            1.1992     3.3157     1.9516 H       
  37 H37            2.8736    -0.3399     0.5283 H       
  38 H38            4.8665     0.8732    -0.2561 H       
  39 H39            3.1868     4.5370     1.1665 H       
  40 H40            5.2673     3.1154    -2.6272 H       
  41 H41            1.7554     0.2215     4.1631 H       
  42 H42            2.4118    -1.3910     3.7925 H       
  43 H43            3.0105     0.0369     2.9145 H       
  44 H44            7.3336     2.2560     1.0142 H       
  45 H45            9.0315     1.0008    -0.2507 H       
  46 H46            8.8465     0.7983    -2.6966 H       
  47 H47            6.9671     1.8547    -3.8841 H       
@<TRIPOS>BOND
   1    1    2 1
   2    1   11 1
   3    1    6 1
   4    1   27 1
   5    2    3 1
   6    2   22 1
   7    3    4 1
   8    3   28 1
   9    3   29 1
  10    4    5 1
  11    4   30 1
  12    4   31 1
  13    5    6 1
  14    5    7 1
  15    6   10 2
  16    7    8 1
  17    7   32 1
  18    7   33 1
  19    8    9 1
  20    8   34 1
  21    8   35 1
  22    9   10 am
  23    9   13 2
  24    9   14 2
  25   11   12 ar
  26   11   15 ar
  27   12   18 ar
  28   12   36 1
  29   15   16 ar
  30   15   37 1
  31   16   17 ar
  32   16   38 1
  33   17   18 ar
  34   17   19 1
  35   18   39 1
  36   19   20 1
  37   20   21 ar
  38   20   23 ar
  39   21   26 ar
  40   21   40 1
  41   22   41 1
  42   22   42 1
  43   22   43 1
  44   23   24 ar
  45   23   44 1
  46   24   25 ar
  47   24   45 1
  48   25   26 ar
  49   25   46 1
  50   26   47 1

#	End of record

