#	Name: ASD01310014
#	Creating user name:	WinNT
#	Creation time:	15. 06. 2019 19:15

#	Modifying user name:	WinNT
#	Modification time:	15. 06. 2019 19:15

#	Program:	/corina/corina34_cracker 3.40 0067  02.08.2006

@<TRIPOS>MOLECULE
ASD01310014
  55   58    0    0    0
SMALL
NO_CHARGES


@<TRIPOS>ATOM
   1 N1             1.0232     1.6885    -1.0651 N.3     
   2 C2             1.0674     0.2029    -1.0154 C.3     
   3 C3            -0.2048    -0.2667    -0.2917 C.3     
   4 C4            -1.4253     0.1273    -1.1286 C.3     
   5 C5            -1.3838     1.6285    -1.4282 C.3     
   6 C6            -0.0317     1.9696    -2.0749 C.3     
   7 C7             0.2304     0.9372    -3.1955 C.3     
   8 C8             0.9567    -0.2302    -2.4955 C.3     
   9 O9            -1.4151    -0.6148    -2.3766 O.3     
  10 C10           -2.6061    -0.8937    -2.9294 C.2     
  11 O11           -3.6233    -0.5299    -2.3884 O.2     
  12 C12           -2.6744    -1.6607    -4.2248 C.3     
  13 C13           -3.2717    -5.0131    -2.5945 C.ar    
  14 C14           -3.3189    -3.6573    -2.8597 C.ar    
  15 C15           -2.6241    -3.1390    -3.9366 C.ar    
  16 C16           -1.8837    -3.9769    -4.7493 C.ar    
  17 C17           -1.8376    -5.3330    -4.4849 C.ar    
  18 C18           -2.5316    -5.8511    -3.4075 C.ar    
  19 C19           -3.9612    -1.3311    -4.9365 C.ar    
  20 C20           -5.1722    -1.7004    -4.3814 C.ar    
  21 C21           -6.3526    -1.3981    -5.0342 C.ar    
  22 C22           -6.3220    -0.7262    -6.2419 C.ar    
  23 C23           -5.1111    -0.3561    -6.7965 C.ar    
  24 C24           -3.9309    -0.6546    -6.1416 C.ar    
  25 O25           -1.5666    -1.2987    -5.0517 O.3     
  26 C26            2.3174     2.2398    -1.4884 C.3     
  27 C27            2.1695     3.7140    -1.7640 C.2     
  28 C28            2.9460     4.5754    -1.1548 C.2     
  29 H29            1.9732    -0.1670    -0.5351 H       
  30 H30           -0.1782    -1.3499    -0.1724 H       
  31 H31           -0.2645     0.2087     0.6873 H       
  32 H32           -2.3349    -0.1071    -0.5757 H       
  33 H33           -2.1915     1.8865    -2.1131 H       
  34 H34           -1.4965     2.1892    -0.5003 H       
  35 H35            0.0040     2.9984    -2.4333 H       
  36 H36           -0.7117     0.5954    -3.6242 H       
  37 H37            0.8652     1.3698    -3.9688 H       
  38 H38            1.9486    -0.3717    -2.9245 H       
  39 H39            0.3718    -1.1461    -2.5800 H       
  40 H40           -3.8109    -5.4173    -1.7505 H       
  41 H41           -3.8974    -3.0026    -2.2247 H       
  42 H42           -1.3415    -3.5722    -5.5911 H       
  43 H43           -1.2597    -5.9877    -5.1203 H       
  44 H44           -2.4953    -6.9105    -3.2007 H       
  45 H45           -5.1961    -2.2253    -3.4378 H       
  46 H46           -7.2987    -1.6872    -4.6009 H       
  47 H47           -7.2442    -0.4906    -6.7522 H       
  48 H48           -5.0872     0.1685    -7.7402 H       
  49 H49           -2.9848    -0.3655    -6.5749 H       
  50 H50           -1.5350    -0.3590    -5.2778 H       
  51 H51            3.0523     2.0900    -0.6975 H       
  52 H52            2.6497     1.7324    -2.3941 H       
  53 H53            1.4233     4.0604    -2.4637 H       
  54 H54            3.6923     4.2290    -0.4551 H       
  55 H55            2.8400     5.6319    -1.3523 H       
@<TRIPOS>BOND
   1    1    2 1
   2    1   26 1
   3    1    6 1
   4    2    3 1
   5    2    8 1
   6    2   29 1
   7    3    4 1
   8    3   30 1
   9    3   31 1
  10    4    5 1
  11    4    9 1
  12    4   32 1
  13    5    6 1
  14    5   33 1
  15    5   34 1
  16    6    7 1
  17    6   35 1
  18    7    8 1
  19    7   36 1
  20    7   37 1
  21    8   38 1
  22    8   39 1
  23    9   10 1
  24   10   11 2
  25   10   12 1
  26   12   19 1
  27   12   25 1
  28   12   15 1
  29   13   14 ar
  30   13   18 ar
  31   13   40 1
  32   14   15 ar
  33   14   41 1
  34   15   16 ar
  35   16   17 ar
  36   16   42 1
  37   17   18 ar
  38   17   43 1
  39   18   44 1
  40   19   20 ar
  41   19   24 ar
  42   20   21 ar
  43   20   45 1
  44   21   22 ar
  45   21   46 1
  46   22   23 ar
  47   22   47 1
  48   23   24 ar
  49   23   48 1
  50   24   49 1
  51   25   50 1
  52   26   27 1
  53   26   51 1
  54   26   52 1
  55   27   28 2
  56   27   53 1
  57   28   54 1
  58   28   55 1

#	End of record

