#	Name: ASD01200064
#	Creating user name:	WinNT
#	Creation time:	15. 06. 2019 19:08

#	Modifying user name:	WinNT
#	Modification time:	15. 06. 2019 19:08

#	Program:	/corina/corina34_cracker 3.40 0067  02.08.2006

@<TRIPOS>MOLECULE
ASD01200064
  35   37    0    0    0
SMALL
NO_CHARGES


@<TRIPOS>ATOM
   1 C1            -0.0205     1.3924     0.0091 C.ar    
   2 C2            -0.0073     0.0022     0.0242 C.ar    
   3 C3            -1.1951    -0.7048     0.0313 C.ar    
   4 C4            -2.4020    -0.0358     0.0240 C.ar    
   5 C5            -2.4265     1.3605     0.0089 C.ar    
   6 C6            -1.2285     2.0743     0.0070 C.ar    
   7 C7            -3.7180     2.0794     0.0006 C.2     
   8 N8            -4.8745     1.3873     0.0076 N.am    
   9 C9            -6.0881     2.0629    -0.0002 C.2     
  10 O10           -3.7371     3.2947    -0.0126 O.2     
  11 S11            1.4969     2.2879     0.0001 S.3     
  12 N12           -7.2539     1.4955     0.0055 N.2     
  13 C13           -8.3061     2.2923    -0.0036 C.2     
  14 C14           -8.0158     3.5947    -0.0176 C.2     
  15 S15           -6.2622     3.7636    -0.0113 S.3     
  16 C16            1.8206     2.3239    -1.7316 C.2     
  17 N17            2.8396     2.9869    -2.3535 N.pl3   
  18 C18            2.6905     2.7277    -3.6874 C.2     
  19 N19            1.6456     1.9602    -3.8192 N.2     
  20 N20            1.1312     1.7138    -2.6673 N.2     
  21 C21            3.8770     3.8064    -1.7222 C.3     
  22 C22           -9.7209     1.7732     0.0006 C.3     
  23 H23            0.9341    -0.5270     0.0299 H       
  24 H24           -1.1785    -1.7846     0.0423 H       
  25 H25           -3.3277    -0.5921     0.0297 H       
  26 H26           -1.2412     3.1541    -0.0044 H       
  27 H27           -4.8594     0.4175     0.0181 H       
  28 H28           -8.7309     4.4039    -0.0267 H       
  29 H29            3.3216     3.0920    -4.4846 H       
  30 H30            4.7324     3.1794    -1.4707 H       
  31 H31            4.1910     4.5898    -2.4120 H       
  32 H32            3.4794     4.2597    -0.8142 H       
  33 H33          -10.0629     1.6591     1.0292 H       
  34 H34          -10.3680     2.4780    -0.5214 H       
  35 H35           -9.7549     0.8071    -0.5029 H       
@<TRIPOS>BOND
   1    1    2 ar
   2    1   11 1
   3    1    6 ar
   4    2    3 ar
   5    2   23 1
   6    3    4 ar
   7    3   24 1
   8    4    5 ar
   9    4   25 1
  10    5    6 ar
  11    5    7 1
  12    6   26 1
  13    7    8 am
  14    7   10 2
  15    8    9 1
  16    8   27 1
  17    9   12 2
  18    9   15 1
  19   11   16 1
  20   12   13 1
  21   13   14 2
  22   13   22 1
  23   14   15 1
  24   14   28 1
  25   16   17 1
  26   16   20 2
  27   17   18 1
  28   17   21 1
  29   18   19 2
  30   18   29 1
  31   19   20 1
  32   21   30 1
  33   21   31 1
  34   21   32 1
  35   22   33 1
  36   22   34 1
  37   22   35 1

#	End of record

