#	Name: ASD04882527
#	Creating user name:	WinNT
#	Creation time:	15. 06. 2019 20:54

#	Modifying user name:	WinNT
#	Modification time:	15. 06. 2019 20:54

#	Program:	/corina/corina34_cracker 3.40 0067  02.08.2006

@<TRIPOS>MOLECULE
ASD04882527
  75   79    0    0    0
SMALL
NO_CHARGES


@<TRIPOS>ATOM
   1 C1            -0.0215     1.4013    -0.0093 C.ar    
   2 C2            -0.0116     0.0037    -0.0052 C.ar    
   3 C3            -1.2094    -0.7018    -0.0165 C.ar    
   4 C4            -2.4097    -0.0267    -0.0323 C.ar    
   5 C5            -2.4268     1.3709    -0.0370 C.ar    
   6 C6            -1.2240     2.0826    -0.0189 C.ar    
   7 N7             1.1997    -0.6831     0.0098 N.3     
   8 C8             1.3067    -1.5361     1.2016 C.3     
   9 C9             1.3723    -1.4733    -1.2171 C.3     
  10 C10            2.7462    -2.1475    -1.1974 C.3     
  11 N11            2.8532    -3.0006    -0.0055 N.3     
  12 C12            2.6806    -2.2104     1.2214 C.3     
  13 C13           -3.7127     2.0938    -0.0549 C.2     
  14 O14           -3.7266     3.3097    -0.0589 O.2     
  15 N15           -4.8720     1.4066    -0.0667 N.am    
  16 N16            1.1863     2.1109     0.0021 N.am    
  17 C17            4.0626    -3.6863     0.0094 C.ar    
  18 C18            1.2294     3.3599     0.5068 C.2     
  19 C19            2.5092     4.0695     0.5995 C.2     
  20 O20            0.2059     3.8988     0.8856 O.2     
  21 O21            3.7109     3.5902     0.2170 O.3     
  22 C22            4.6525     4.5139     0.4498 C.2     
  23 C23            4.0665     5.6061     0.9882 C.2     
  24 C24            2.6927     5.3335     1.0826 C.2     
  25 C25            5.2616    -2.9862     0.0203 C.ar    
  26 C26            6.4613    -3.6692     0.0347 C.ar    
  27 C27            6.4799    -5.0543     0.0384 C.ar    
  28 C28            5.2999    -5.7666     0.0277 C.ar    
  29 C29            4.0778    -5.0901     0.0194 C.ar    
  30 C30            2.8482    -5.8240     0.0088 C.1     
  31 C31           -6.1489     2.1245    -0.0845 C.3     
  32 C32           -7.3003     1.1170    -0.0953 C.3     
  33 C33           -8.6339     1.8668    -0.1139 C.3     
  34 N34           -9.7364     0.9021    -0.1242 N.am    
  35 C35          -10.3209     0.4065     0.9802 C.2     
  36 C36          -10.3487     0.3573    -1.3416 C.3     
  37 C37          -11.1255    -0.8979    -0.8861 C.3     
  38 C38          -11.4131    -0.5680     0.5981 C.3     
  39 O39          -10.0165     0.6978     2.1175 O.2     
  40 C40            6.1232     4.3605     0.1593 C.3     
  41 N41            1.8727    -6.4062     0.0004 N.1     
  42 H42           -1.1987    -1.7818    -0.0133 H       
  43 H43           -3.3386    -0.5776    -0.0414 H       
  44 H44           -1.2341     3.1626    -0.0224 H       
  45 H45            1.1881    -0.9262     2.0972 H       
  46 H46            0.5279    -2.2983     1.1745 H       
  47 H47            0.5943    -2.2347    -1.2718 H       
  48 H48            1.3015    -0.8176    -2.0850 H       
  49 H49            2.8648    -2.7574    -2.0930 H       
  50 H50            3.5250    -1.3854    -1.1702 H       
  51 H51            3.4586    -1.4490     1.2760 H       
  52 H52            2.7514    -2.8661     2.0892 H       
  53 H53           -4.8609     0.4367    -0.0635 H       
  54 H54            1.9917     1.7034    -0.3533 H       
  55 H55            4.5614     6.5186     1.2861 H       
  56 H56            1.9298     5.9929     1.4693 H       
  57 H57            5.2557    -1.9062     0.0172 H       
  58 H58            7.3913    -3.1201     0.0428 H       
  59 H59            7.4240    -5.5788     0.0493 H       
  60 H60            5.3202    -6.8464     0.0299 H       
  61 H61           -6.2246     2.7533     0.8026 H       
  62 H62           -6.2030     2.7476    -0.9772 H       
  63 H63           -7.2246     0.4882    -0.9824 H       
  64 H64           -7.2462     0.4939     0.7974 H       
  65 H65           -8.7096     2.4955     0.7733 H       
  66 H66           -8.6880     2.4899    -1.0066 H       
  67 H67          -11.0318     1.0856    -1.7787 H       
  68 H68           -9.5775     0.0830    -2.0614 H       
  69 H69          -12.0538    -1.0070    -1.4468 H       
  70 H70          -10.5092    -1.7924    -0.9770 H       
  71 H71          -11.3511    -1.4691     1.2082 H       
  72 H72          -12.3931    -0.1023     0.7023 H       
  73 H73            6.3075     3.3770    -0.2729 H       
  74 H74            6.4368     5.1313    -0.5448 H       
  75 H75            6.6891     4.4624     1.0853 H       
@<TRIPOS>BOND
   1    1    2 ar
   2    1   16 1
   3    1    6 ar
   4    2    3 ar
   5    2    7 1
   6    3    4 ar
   7    3   42 1
   8    4    5 ar
   9    4   43 1
  10    5    6 ar
  11    5   13 1
  12    6   44 1
  13    7    8 1
  14    7    9 1
  15    8   12 1
  16    8   45 1
  17    8   46 1
  18    9   10 1
  19    9   47 1
  20    9   48 1
  21   10   11 1
  22   10   49 1
  23   10   50 1
  24   11   12 1
  25   11   17 1
  26   12   51 1
  27   12   52 1
  28   13   14 2
  29   13   15 am
  30   15   31 1
  31   15   53 1
  32   16   18 am
  33   16   54 1
  34   17   25 ar
  35   17   29 ar
  36   18   19 1
  37   18   20 2
  38   19   21 1
  39   19   24 2
  40   21   22 1
  41   22   23 2
  42   22   40 1
  43   23   24 1
  44   23   55 1
  45   24   56 1
  46   25   26 ar
  47   25   57 1
  48   26   27 ar
  49   26   58 1
  50   27   28 ar
  51   27   59 1
  52   28   29 ar
  53   28   60 1
  54   29   30 1
  55   30   41 3
  56   31   32 1
  57   31   61 1
  58   31   62 1
  59   32   33 1
  60   32   63 1
  61   32   64 1
  62   33   34 1
  63   33   65 1
  64   33   66 1
  65   34   35 am
  66   34   36 1
  67   35   39 2
  68   35   38 1
  69   36   37 1
  70   36   67 1
  71   36   68 1
  72   37   38 1
  73   37   69 1
  74   37   70 1
  75   38   71 1
  76   38   72 1
  77   40   73 1
  78   40   74 1
  79   40   75 1

#	End of record

