#	Name: ASD03430676
#	Creating user name:	WinNT
#	Creation time:	15. 06. 2019 20:41

#	Modifying user name:	WinNT
#	Modification time:	15. 06. 2019 20:41

#	Program:	/corina/corina34_cracker 3.40 0067  02.08.2006

@<TRIPOS>MOLECULE
ASD03430676
  57   63    0    0    0
SMALL
NO_CHARGES


@<TRIPOS>ATOM
   1 C1             2.6470     0.3984    -0.0064 C.ar    
   2 C2             2.0854    -0.8590    -0.0428 C.ar    
   3 C3             2.8809    -1.9657    -0.2522 C.ar    
   4 C4             4.2562    -1.8233    -0.4177 C.ar    
   5 C5             4.8136    -0.5507    -0.3871 C.ar    
   6 C6             4.0147     0.5684    -0.1854 C.ar    
   7 O7             4.8601    -3.0350    -0.5798 O.3     
   8 C8             2.5831    -3.4360    -0.3683 C.3     
   9 C9             3.8737    -4.0097    -0.9698 C.3     
  10 C10            0.9902    -4.6216     0.8052 C.ar    
  11 C11            2.2561    -4.0616     0.9550 C.ar    
  12 C12            1.3921    -3.7068    -1.2422 C.2     
  13 N13            0.5123    -4.3965    -0.4893 N.am    
  14 O14            1.2498    -3.3708    -2.3989 O.2     
  15 C15            2.9290    -4.1604     2.1526 C.ar    
  16 C16            2.3476    -4.8213     3.2224 C.ar    
  17 C17            1.0888    -5.3818     3.0835 C.ar    
  18 C18            0.4124    -5.2841     1.8853 C.ar    
  19 C19           -0.7925    -4.8566    -0.9710 C.3     
  20 C20            2.0519     1.7751     0.2154 C.3     
  21 C21            3.3101     2.6226     0.5191 C.3     
  22 O22            4.3555     1.8863    -0.1383 O.3     
  23 F23            3.0068    -4.9190     4.3976 F       
  24 C24           -1.8852    -4.1915    -0.1743 C.ar    
  25 C25           -3.0296    -4.8954     0.1511 C.ar    
  26 C26           -4.0319    -4.2854     0.8819 C.ar    
  27 C27           -3.8896    -2.9716     1.2878 C.ar    
  28 C28           -2.7448    -2.2681     0.9632 C.ar    
  29 C29           -1.7406    -2.8794     0.2361 C.ar    
  30 C30           -0.9445    -4.4999    -2.4273 C.ar    
  31 C31           -0.8985    -5.4908    -3.3900 C.ar    
  32 C32           -1.0379    -5.1637    -4.7259 C.ar    
  33 C33           -1.2238    -3.8457    -5.0989 C.ar    
  34 C34           -1.2708    -2.8549    -4.1361 C.ar    
  35 C35           -1.1357    -3.1826    -2.8000 C.ar    
  36 H36            1.0207    -0.9781     0.0933 H       
  37 H37            5.8785    -0.4302    -0.5211 H       
  38 H38            3.8000    -4.0727    -2.0555 H       
  39 H39            4.1015    -4.9847    -0.5390 H       
  40 H40            3.9107    -3.7227     2.2577 H       
  41 H41            0.6349    -5.8978     3.9166 H       
  42 H42           -0.5691    -5.7232     1.7845 H       
  43 H43           -0.8630    -5.9378    -0.8525 H       
  44 H44            1.5499     2.1319    -0.6839 H       
  45 H45            1.3697     1.7722     1.0655 H       
  46 H46            3.2149     3.6216     0.0936 H       
  47 H47            3.4908     2.6746     1.5928 H       
  48 H48           -3.1407    -5.9218    -0.1660 H       
  49 H49           -4.9263    -4.8351     1.1355 H       
  50 H50           -4.6730    -2.4948     1.8582 H       
  51 H51           -2.6339    -1.2415     1.2800 H       
  52 H52           -0.8446    -2.3309    -0.0143 H       
  53 H53           -0.7532    -6.5206    -3.0986 H       
  54 H54           -1.0012    -5.9378    -5.4781 H       
  55 H55           -1.3321    -3.5900    -6.1426 H       
  56 H56           -1.4158    -1.8251    -4.4276 H       
  57 H57           -1.1762    -2.4089    -2.0475 H       
@<TRIPOS>BOND
   1    1    2 ar
   2    1    6 ar
   3    1   20 1
   4    2    3 ar
   5    2   36 1
   6    3    4 ar
   7    3    8 1
   8    4    5 ar
   9    4    7 1
  10    5    6 ar
  11    5   37 1
  12    6   22 1
  13    7    9 1
  14    8    9 1
  15    8   11 1
  16    8   12 1
  17    9   38 1
  18    9   39 1
  19   10   11 ar
  20   10   13 1
  21   10   18 ar
  22   11   15 ar
  23   12   13 am
  24   12   14 2
  25   13   19 1
  26   15   16 ar
  27   15   40 1
  28   16   17 ar
  29   16   23 1
  30   17   18 ar
  31   17   41 1
  32   18   42 1
  33   19   24 1
  34   19   30 1
  35   19   43 1
  36   20   21 1
  37   20   44 1
  38   20   45 1
  39   21   22 1
  40   21   46 1
  41   21   47 1
  42   24   25 ar
  43   24   29 ar
  44   25   26 ar
  45   25   48 1
  46   26   27 ar
  47   26   49 1
  48   27   28 ar
  49   27   50 1
  50   28   29 ar
  51   28   51 1
  52   29   52 1
  53   30   31 ar
  54   30   35 ar
  55   31   32 ar
  56   31   53 1
  57   32   33 ar
  58   32   54 1
  59   33   34 ar
  60   33   55 1
  61   34   35 ar
  62   34   56 1
  63   35   57 1

#	End of record

