#	Name: ASD08150370
#	Creating user name:	WinNT
#	Creation time:	15. 06. 2019 21:15

#	Modifying user name:	WinNT
#	Modification time:	15. 06. 2019 21:15

#	Program:	/corina/corina34_cracker 3.40 0067  02.08.2006

@<TRIPOS>MOLECULE
ASD08150370
  50   54    0    0    0
SMALL
NO_CHARGES


@<TRIPOS>ATOM
   1 N1             0.8831     2.9156    -1.4498 N.am    
   2 C2             1.3100     2.2923    -2.5652 C.2     
   3 C3             2.5199     1.5689    -2.5719 C.2     
   4 C4             3.2754     1.4910    -1.4469 C.2     
   5 C5             2.8295     2.1459    -0.2717 C.ar    
   6 C6             3.5752     2.0970     0.9216 C.ar    
   7 N7             3.1617     2.7025     2.0041 N.ar    
   8 C8             2.0156     3.3988     2.0435 C.ar    
   9 C9             1.2011     3.5015     0.8889 C.ar    
  10 C10            1.6201     2.8573    -0.2987 C.ar    
  11 C11            0.0080     4.2288     0.9407 C.ar    
  12 C12           -0.3657     4.8430     2.1250 C.ar    
  13 C13            0.4454     4.7370     3.2634 C.ar    
  14 C14            1.6089     4.0337     3.2286 C.ar    
  15 O15            0.6408     2.3544    -3.5825 O.2     
  16 C16           -1.6296     5.6168     2.1885 C.ar    
  17 C17           -0.3198     3.6325    -1.4704 C.ar    
  18 C18           -0.3140     4.9916    -1.7568 C.ar    
  19 C19           -1.5003     5.6993    -1.7777 C.ar    
  20 C20           -2.6966     5.0564    -1.5130 C.ar    
  21 C21           -2.7072     3.6969    -1.2261 C.ar    
  22 C22           -1.5192     2.9841    -1.2102 C.ar    
  23 F23           -3.8551     5.7511    -1.5333 F       
  24 C24           -2.7549     5.1895     1.4893 C.ar    
  25 N25           -3.8800     5.8741     1.5435 N.ar    
  26 C26           -3.9869     6.9834     2.2561 C.ar    
  27 C27           -2.9063     7.4732     2.9808 C.ar    
  28 C28           -1.7095     6.7837     2.9567 C.ar    
  29 O29           -3.8828     3.0657    -0.9657 O.3     
  30 C30           -3.8187     1.6673    -0.6787 C.3     
  31 O31           -5.1668     7.6524     2.2798 O.3     
  32 C32           -6.2407     7.1009     1.5152 C.3     
  33 H33            2.8465     1.0747    -3.4749 H       
  34 H34            4.2029     0.9375    -1.4472 H       
  35 H35            4.5057     1.5491     0.9433 H       
  36 H36           -0.6174     4.3113     0.0641 H       
  37 H37            0.1425     5.2207     4.1803 H       
  38 H38            2.2216     3.9624     4.1151 H       
  39 H39            0.6187     5.4956    -1.9629 H       
  40 H40           -1.4939     6.7560    -2.0005 H       
  41 H41           -1.5259     1.9265    -0.9914 H       
  42 H42           -2.7056     4.2882     0.8962 H       
  43 H43           -3.0028     8.3800     3.5595 H       
  44 H44           -0.8540     7.1411     3.5105 H       
  45 H45           -3.3860     1.1412    -1.5296 H       
  46 H46           -3.1979     1.5054     0.2025 H       
  47 H47           -4.8233     1.2887    -0.4900 H       
  48 H48           -5.9521     7.0532     0.4652 H       
  49 H49           -6.4657     6.0973     1.8761 H       
  50 H50           -7.1234     7.7315     1.6211 H       
@<TRIPOS>BOND
   1    1    2 am
   2    1   10 1
   3    1   17 1
   4    2    3 1
   5    2   15 2
   6    3    4 2
   7    3   33 1
   8    4    5 1
   9    4   34 1
  10    5    6 ar
  11    5   10 ar
  12    6    7 ar
  13    6   35 1
  14    7    8 ar
  15    8    9 ar
  16    8   14 ar
  17    9   10 ar
  18    9   11 ar
  19   11   12 ar
  20   11   36 1
  21   12   13 ar
  22   12   16 1
  23   13   14 ar
  24   13   37 1
  25   14   38 1
  26   16   24 ar
  27   16   28 ar
  28   17   18 ar
  29   17   22 ar
  30   18   19 ar
  31   18   39 1
  32   19   20 ar
  33   19   40 1
  34   20   21 ar
  35   20   23 1
  36   21   22 ar
  37   21   29 1
  38   22   41 1
  39   24   25 ar
  40   24   42 1
  41   25   26 ar
  42   26   27 ar
  43   26   31 1
  44   27   28 ar
  45   27   43 1
  46   28   44 1
  47   29   30 1
  48   30   45 1
  49   30   46 1
  50   30   47 1
  51   31   32 1
  52   32   48 1
  53   32   49 1
  54   32   50 1

#	End of record

