#	Name: ASD03090277
#	Creating user name:	WinNT
#	Creation time:	15. 06. 2019 20:28

#	Modifying user name:	WinNT
#	Modification time:	15. 06. 2019 20:28

#	Program:	/corina/corina34_cracker 3.40 0067  02.08.2006

@<TRIPOS>MOLECULE
ASD03090277
  57   60    0    0    0
SMALL
NO_CHARGES


@<TRIPOS>ATOM
   1 C1            -0.0019     0.7871     1.8747 C.ar    
   2 N2            -1.1564     1.0864     2.4520 N.ar    
   3 C3            -2.2394     0.3636     2.2527 C.ar    
   4 C4            -2.2055    -0.7526     1.4182 C.ar    
   5 C5            -1.0003    -1.0975     0.7916 C.ar    
   6 C6             0.1089    -0.3098     1.0239 C.ar    
   7 C7            -3.4236    -1.5614     1.1978 C.2     
   8 N8            -6.8951    -2.1146     1.2533 N.pl3   
   9 C9            -7.5017    -1.0086     1.8576 C.ar    
  10 C10           -6.8276    -0.2967     2.8410 C.ar    
  11 C11           -7.4284     0.7956     3.4360 C.ar    
  12 C12           -8.7020     1.1805     3.0529 C.ar    
  13 C13           -9.3763     0.4717     2.0726 C.ar    
  14 C14           -8.7771    -0.6171     1.4707 C.ar    
  15 N15           -4.6621    -1.1812     1.4427 N.2     
  16 C16           -5.5057    -2.1652     1.1248 C.2     
  17 N17           -4.8192    -3.1885     0.6720 N.2     
  18 N18           -3.4646    -2.8195     0.7039 N.pl3   
  19 C19           -2.3218    -3.6388     0.2928 C.3     
  20 F20           -9.2879     2.2488     3.6364 F       
  21 C21           -2.0870    -3.4693    -1.2096 C.3     
  22 C22           -0.9114    -4.3121    -1.6325 C.2     
  23 N23           -0.5176    -4.3210    -2.9214 N.am    
  24 O24           -0.3197    -4.9823    -0.8130 O.2     
  25 C25            0.6252    -5.1403    -3.3325 C.3     
  26 C26           -1.2323    -3.5114    -3.9113 C.3     
  27 N27            1.1107     1.5809     2.1167 N.pl3   
  28 C28            2.4153     1.1999     1.5698 C.3     
  29 C29            3.4823     2.2912     1.4624 C.3     
  30 C30            3.6094     1.1991     2.5264 C.3     
  31 C31          -10.7627     0.8929     1.6581 C.3     
  32 F32          -11.2333     0.0314     0.6613 F       
  33 F33          -11.6173     0.8371     2.7643 F       
  34 F34          -10.7244     2.2011     1.1638 F       
  35 H35           -3.1628     0.6382     2.7409 H       
  36 H36           -0.9420    -1.9565     0.1395 H       
  37 H37            1.0538    -0.5458     0.5573 H       
  38 H38           -7.4396    -2.8465     0.9237 H       
  39 H39           -5.8344    -0.5970     3.1407 H       
  40 H40           -6.9045     1.3495     4.2009 H       
  41 H41           -9.3033    -1.1693     0.7061 H       
  42 H42           -1.4327    -3.3216     0.8376 H       
  43 H43           -2.5281    -4.6863     0.5124 H       
  44 H44           -2.9762    -3.7865    -1.7544 H       
  45 H45           -1.8807    -2.4217    -1.4291 H       
  46 H46            0.2762    -6.1314    -3.6222 H       
  47 H47            1.1243    -4.6689    -4.1792 H       
  48 H48            1.3254    -5.2301    -2.5020 H       
  49 H49           -0.7772    -2.5227    -3.9690 H       
  50 H50           -1.1749    -3.9953    -4.8863 H       
  51 H51           -2.2768    -3.4138    -3.6151 H       
  52 H52            1.0245     2.3880     2.6478 H       
  53 H53            2.3941     0.4384     0.7902 H       
  54 H54            4.1633     2.2474     0.6124 H       
  55 H55            3.2136     3.2926     1.7987 H       
  56 H56            3.4243     1.4820     3.5627 H       
  57 H57            4.3739     0.4368     2.3764 H       
@<TRIPOS>BOND
   1    1    2 ar
   2    1   27 1
   3    1    6 ar
   4    2    3 ar
   5    3    4 ar
   6    3   35 1
   7    4    5 ar
   8    4    7 1
   9    5    6 ar
  10    5   36 1
  11    6   37 1
  12    7   15 2
  13    7   18 1
  14    8    9 1
  15    8   16 1
  16    8   38 1
  17    9   10 ar
  18    9   14 ar
  19   10   11 ar
  20   10   39 1
  21   11   12 ar
  22   11   40 1
  23   12   13 ar
  24   12   20 1
  25   13   14 ar
  26   13   31 1
  27   14   41 1
  28   15   16 1
  29   16   17 2
  30   17   18 1
  31   18   19 1
  32   19   21 1
  33   19   42 1
  34   19   43 1
  35   21   22 1
  36   21   44 1
  37   21   45 1
  38   22   23 am
  39   22   24 2
  40   23   25 1
  41   23   26 1
  42   25   46 1
  43   25   47 1
  44   25   48 1
  45   26   49 1
  46   26   50 1
  47   26   51 1
  48   27   28 1
  49   27   52 1
  50   28   29 1
  51   28   30 1
  52   28   53 1
  53   29   30 1
  54   29   54 1
  55   29   55 1
  56   30   56 1
  57   30   57 1
  58   31   32 1
  59   31   33 1
  60   31   34 1

#	End of record

