#	Name: ASD00450044
#	Creating user name:	WinNT
#	Creation time:	15. 06. 2019 18:36

#	Modifying user name:	WinNT
#	Modification time:	15. 06. 2019 18:36

#	Program:	/corina/corina34_cracker 3.40 0067  02.08.2006

@<TRIPOS>MOLECULE
ASD00450044
  52   54    0    0    0
SMALL
NO_CHARGES


@<TRIPOS>ATOM
   1 C1            -3.2029     1.1455     0.9953 C.ar    
   2 C2            -2.6614    -0.1424     0.8620 C.ar    
   3 C3            -1.2878    -0.3111     0.8288 C.ar    
   4 C4            -0.4468     0.7859     0.9268 C.ar    
   5 C5            -0.9692     2.0614     1.0586 C.ar    
   6 C6            -2.3423     2.2524     1.0939 C.ar    
   7 C7            -4.6604     1.3361     1.0254 C.2     
   8 O8            -5.2555     1.3098     2.0862 O.2     
   9 N9            -5.3372     1.5401    -0.1221 N.am    
  10 N10           -2.8651     3.5328     1.2258 N.pl3   
  11 C11           -2.1312     4.5234     1.8872 C.ar    
  12 C12           -2.4204     5.8666     1.6707 C.ar    
  13 C13           -1.1163     4.1678     2.7654 C.ar    
  14 C14           -0.3935     5.1479     3.4174 C.ar    
  15 C15           -0.6792     6.4834     3.1968 C.ar    
  16 C16           -1.6929     6.8426     2.3268 C.ar    
  17 F17            0.8922     0.6096     0.8937 F       
  18 F18           -3.4102     6.2172     0.8207 F       
  19 I19            0.4202     7.9651     4.1893 I       
  20 O20           -3.4815    -1.2186     0.7663 O.3     
  21 C21           -2.9153    -2.4539     0.7632 C.ar    
  22 C22           -2.6616    -3.1033     1.9611 C.ar    
  23 C23           -2.0829    -4.3653     1.9543 C.ar    
  24 C24           -2.5959    -3.0686    -0.4399 C.ar    
  25 C25           -2.0201    -4.3245    -0.4448 C.ar    
  26 N26           -1.8260    -5.0233     3.1592 N.am    
  27 C27           -1.7602    -4.9729     0.7473 C.ar    
  28 S28           -2.7885    -6.2837     3.6359 S.o2    
  29 N29           -4.3326    -5.6995     3.7658 N.am    
  30 O30           -2.7994    -7.2101     2.5584 O.2     
  31 O31           -2.3774    -6.6271     4.9520 O.2     
  32 C32           -5.2722    -5.8589     2.6531 C.3     
  33 C33           -4.7591    -5.0233     4.9934 C.3     
  34 H34           -0.8699    -1.3018     0.7266 H       
  35 H35           -0.3054     2.9099     1.1345 H       
  36 H36           -4.8628     1.5610    -0.9678 H       
  37 H37           -6.2988     1.6658    -0.1022 H       
  38 H38           -3.7390     3.7400     0.8594 H       
  39 H39           -0.8923     3.1257     2.9389 H       
  40 H40            0.3957     4.8712     4.1008 H       
  41 H41           -1.9163     7.8859     2.1598 H       
  42 H42           -2.9132    -2.6285     2.8979 H       
  43 H43           -2.7980    -2.5644    -1.3734 H       
  44 H44           -1.7726    -4.8003    -1.3822 H       
  45 H45           -1.0838    -4.7420     3.7168 H       
  46 H46           -1.3100    -5.9546     0.7407 H       
  47 H47           -5.8130    -6.7985     2.7660 H       
  48 H48           -5.9799    -5.0299     2.6536 H       
  49 H49           -4.7226    -5.8668     1.7118 H       
  50 H50           -3.9066    -4.9163     5.6642 H       
  51 H51           -5.1534    -4.0374     4.7470 H       
  52 H52           -5.5345    -5.6129     5.4825 H       
@<TRIPOS>BOND
   1    1    2 ar
   2    1    6 ar
   3    1    7 1
   4    2    3 ar
   5    2   20 1
   6    3    4 ar
   7    3   34 1
   8    4    5 ar
   9    4   17 1
  10    5    6 ar
  11    5   35 1
  12    6   10 1
  13    7    8 2
  14    7    9 am
  15    9   36 1
  16    9   37 1
  17   10   11 1
  18   10   38 1
  19   11   13 ar
  20   11   12 ar
  21   12   16 ar
  22   12   18 1
  23   13   14 ar
  24   13   39 1
  25   14   15 ar
  26   14   40 1
  27   15   16 ar
  28   15   19 1
  29   16   41 1
  30   20   21 1
  31   21   22 ar
  32   21   24 ar
  33   22   23 ar
  34   22   42 1
  35   23   27 ar
  36   23   26 1
  37   24   25 ar
  38   24   43 1
  39   25   27 ar
  40   25   44 1
  41   26   28 am
  42   26   45 1
  43   27   46 1
  44   28   29 am
  45   28   30 2
  46   28   31 2
  47   29   32 1
  48   29   33 1
  49   32   47 1
  50   32   48 1
  51   32   49 1
  52   33   50 1
  53   33   51 1
  54   33   52 1

#	End of record

