#	Name: ASD06600073
#	Creating user name:	WinNT
#	Creation time:	15. 06. 2019 21:07

#	Modifying user name:	WinNT
#	Modification time:	15. 06. 2019 21:07

#	Program:	/corina/corina34_cracker 3.40 0067  02.08.2006

@<TRIPOS>MOLECULE
ASD06600073
 307  307    0    0    0
SMALL
NO_CHARGES


@<TRIPOS>ATOM
   1 C1            -4.0032     4.1430    -2.5597 C.2     
   2 O2            -3.7917     2.9647    -2.7540 O.2     
   3 N3            -1.5917     4.4289    -2.4724 N.3     
   4 C4            -2.8703     5.1340    -2.6333 C.3     
   5 C5            -2.8967     5.8389    -3.9909 C.3     
   6 C6            -1.8258     6.9313    -4.0194 C.3     
   7 C7            -1.8522     7.6362    -5.3771 C.3     
   8 N8            -0.8268     8.6821    -5.4043 N.pl3   
   9 C9            -0.6621     9.4539    -6.5296 C.2     
  10 N10           -1.3242     9.1724    -7.6146 N.2     
  11 N11            0.2060    10.5285    -6.5092 N.am    
  12 C12           -7.6547     4.3083    -2.5102 C.2     
  13 O13           -7.6598     5.4972    -2.7497 O.2     
  14 N14           -5.2524     4.5668    -2.2834 N.am    
  15 C15           -6.3548     3.6041    -2.2178 C.3     
  16 C16           -6.4118     2.9886    -0.8183 C.3     
  17 C17           -5.1437     2.1694    -0.5694 C.3     
  18 C18           -5.1423     1.6570     0.8722 C.3     
  19 C19           -5.1067     0.9815    -1.5329 C.3     
  20 C20          -11.2114     3.5435    -2.1527 C.2     
  21 O21          -10.9877     2.5312    -1.5234 O.2     
  22 N22           -8.8116     3.6169    -2.5055 N.am    
  23 C23          -10.0752     4.3014    -2.7897 C.3     
  24 C24          -10.2907     4.3668    -4.3030 C.3     
  25 C25           -9.2058     5.2408    -4.9354 C.3     
  26 C26           -9.4213     5.3062    -6.4487 C.3     
  27 N27           -8.3824     6.1431    -7.0542 N.pl3   
  28 C28           -8.3713     6.3492    -8.4134 C.2     
  29 N29           -9.2851     5.8001    -9.1633 N.2     
  30 N30           -7.3964     7.1346    -8.9816 N.pl3   
  31 C31          -14.8580     3.5430    -2.4091 C.2     
  32 O32          -14.8467     4.2909    -3.3637 O.2     
  33 N33          -12.4762     3.9906    -2.2825 N.am    
  34 C34          -13.5807     3.2538    -1.6633 C.3     
  35 C35          -13.7315     3.6912    -0.2050 C.3     
  36 C36          -12.4831     3.2851     0.5809 C.3     
  37 C37          -12.6316     3.7159     2.0174 C.2     
  38 O38          -13.6368     4.2912     2.3771 O.2     
  39 N39          -11.6472     3.4619     2.9022 N.am    
  40 C40          -18.4308     3.0395    -1.8225 C.2     
  41 O41          -18.2500     2.6881    -0.6759 O.2     
  42 N42          -16.0127     2.9705    -2.0151 N.am    
  43 C43          -17.2544     3.2516    -2.7400 C.3     
  44 C44          -17.3680     2.3105    -3.9410 C.3     
  45 C45          -22.0521     2.7148    -2.2026 C.2     
  46 O46          -21.9767     2.6646    -3.4120 O.2     
  47 N47          -19.6840     3.2403    -2.2760 N.am    
  48 C48          -20.8277     3.0341    -1.3840 C.3     
  49 C49          -21.0756     4.3058    -0.5703 C.3     
  50 C50          -19.8828     4.5609     0.3533 C.3     
  51 C51          -20.1270     5.8135     1.1548 C.2     
  52 O52          -21.1539     6.4404     1.0024 O.2     
  53 N53          -19.2041     6.2370     2.0411 N.am    
  54 C54          -25.6563     2.5578    -1.6130 C.2     
  55 O55          -25.5527     3.0422    -0.5059 O.2     
  56 N56          -23.2308     2.4852    -1.5907 N.am    
  57 C57          -24.4210     2.1749    -2.3865 C.3     
  58 C58          -24.4542     0.6759    -2.6911 C.3     
  59 C59          -23.2652     0.3100    -3.5817 C.3     
  60 C60          -23.2984    -1.1890    -3.8864 C.3     
  61 N61          -22.1599    -1.5394    -4.7391 N.pl3   
  62 C62          -21.9802    -2.8404    -5.1457 C.2     
  63 N63          -20.9672    -3.1521    -5.9044 N.2     
  64 N64          -22.8690    -3.8126    -4.7519 N.pl3   
  65 C65          -29.2440     1.9076    -1.8750 C.2     
  66 O66          -29.1773     1.3159    -2.9316 O.2     
  67 N67          -26.8762     2.3620    -2.1513 N.am    
  68 C68          -28.0772     2.7342    -1.3993 C.3     
  69 C69          -28.3787     4.2176    -1.6216 C.3     
  70 C70          -27.2209     5.0598    -1.0821 C.3     
  71 C71          -27.5224     6.5432    -1.3043 C.3     
  72 N72          -26.4138     7.3496    -0.7877 N.pl3   
  73 C73          -26.4610     8.7207    -0.8772 C.2     
  74 N74          -25.4747     9.4382    -0.4175 N.2     
  75 N75          -27.5486     9.3351    -1.4515 N.pl3   
  76 C76          -32.1535     1.7699    -2.7774 C.2     
  77 O77          -31.5646     2.6894    -3.3053 O.2     
  78 N78          -30.3617     1.8260    -1.1263 N.am    
  79 C79          -31.6074     1.1498    -1.5171 C.3     
  80 C80          -32.6127     1.3377    -0.3615 C.3     
  81 C81          -32.0671     2.5904     0.3736 C.3     
  82 C82          -30.5356     2.3945     0.2228 C.3     
  83 C83          -35.3161     1.6817    -4.6086 C.2     
  84 O84          -35.8783     1.0781    -3.7195 O.2     
  85 N85          -33.2963     1.3027    -3.3179 N.am    
  86 C86          -33.8272     1.9055    -4.5430 C.3     
  87 C87          -33.1604     1.2601    -5.7594 C.3     
  88 C88          -31.6670     1.5928    -5.7588 C.3     
  89 C89          -31.0102     0.9571    -6.9569 C.2     
  90 O90          -31.6714     0.3023    -7.7347 O.2     
  91 N91          -29.6880     1.1162    -7.1641 N.am    
  92 C92          -37.9211     1.9736    -7.1565 C.2     
  93 O93          -37.1131     2.1643    -8.0406 O.2     
  94 N94          -36.0228     2.1523    -5.6553 N.am    
  95 C95          -37.4701     1.9348    -5.7191 C.3     
  96 C96          -38.1862     3.0328    -4.9300 C.3     
  97 C97          -37.8240     2.9148    -3.4482 C.3     
  98 C98          -38.5401     4.0128    -2.6592 C.3     
  99 N99          -38.1933     3.8998    -1.2403 N.pl3   
 100 C100         -38.7212     4.7856    -0.3310 C.2     
 101 N101         -39.5303     5.7259    -0.7313 N.2     
 102 N102         -38.3958     4.6795     1.0005 N.pl3   
 103 C103         -41.1151     2.2246    -8.9167 C.2     
 104 O104         -41.7254     2.4490    -7.8929 O.2     
 105 N105         -39.2224     1.7965    -7.4595 N.am    
 106 C106         -39.6608     1.8343    -8.8569 C.3     
 107 C107         -39.4773     0.4520    -9.4865 C.3     
 108 C108         -37.9872     0.1091    -9.5389 C.3     
 109 C109         -37.8065    -1.2525   -10.1591 C.2     
 110 O110         -38.7743    -1.8862   -10.5232 O.2     
 111 N111         -36.5694    -1.7659   -10.3090 N.am    
 112 C112         -44.0085     1.4774    -9.9835 C.2     
 113 O113         -43.4894     0.3935    -9.8208 O.2     
 114 N114         -41.7377     2.3241   -10.1079 N.am    
 115 C115         -43.1515     2.7035   -10.1661 C.3     
 116 C116         -43.4535     3.3392   -11.5246 C.3     
 117 C117         -42.6767     4.6505   -11.6581 C.3     
 118 C118         -42.9788     5.2862   -13.0166 C.3     
 119 C119         -42.2020     6.5976   -13.1501 C.3     
 120 N120         -42.4919     7.2079   -14.4544 N.3     
 121 C121         -47.5293     0.6202   -10.4658 C.2     
 122 O122         -47.7670     1.6696   -11.0155 O.2     
 123 N123         -45.3518     1.5855   -10.0010 N.am    
 124 C124         -46.1850     0.3936    -9.8235 C.3     
 125 C125         -46.3730     0.1206    -8.3298 C.3     
 126 O126         -48.4625    -0.3438   -10.4273 O.3     
 127 C127           0.7976    10.8951    -5.3551 C.2     
 128 O128           0.6328    10.2334    -4.3524 O.2     
 129 C129          11.6401    22.2085     4.9228 C.3     
 130 C130          10.7605    20.9574     4.8778 C.3     
 131 C131          10.2150    20.7683     3.4609 C.3     
 132 C132           9.3354    19.5173     3.4158 C.3     
 133 C133           8.7898    19.3282     1.9990 C.3     
 134 C134           7.9102    18.0771     1.9539 C.3     
 135 C135           7.3647    17.8880     0.5371 C.3     
 136 C136           6.4851    16.6369     0.4920 C.3     
 137 C137           5.9395    16.4478    -0.9249 C.3     
 138 C138           5.0599    15.1968    -0.9699 C.3     
 139 C139           4.5143    15.0077    -2.3868 C.3     
 140 C140           3.6347    13.7566    -2.4319 C.3     
 141 C141           3.0892    13.5675    -3.8487 C.3     
 142 C142           2.2096    12.3164    -3.8938 C.3     
 143 C143           1.6640    12.1273    -5.3107 C.3     
 144 H144          -1.5231     4.0087    -1.5577 H       
 145 H145          -1.4655     3.7389    -3.1977 H       
 146 H146          -2.9808     5.8719    -1.8386 H       
 147 H147          -2.6977     5.1143    -4.7805 H       
 148 H148          -3.8776     6.2876    -4.1484 H       
 149 H149          -2.0248     7.6559    -3.2298 H       
 150 H150          -0.8450     6.4826    -3.8620 H       
 151 H151          -1.6532     6.9115    -6.1666 H       
 152 H152          -2.8330     8.0848    -5.5345 H       
 153 H153          -0.2640     8.8299    -4.6282 H       
 154 H154          -1.2639     9.7584    -8.3853 H       
 155 H155           0.3898    11.0191    -7.3256 H       
 156 H156          -5.4216     5.5092    -2.1280 H       
 157 H157          -6.1942     2.8171    -2.9547 H       
 158 H158          -6.4832     3.7824    -0.0748 H       
 159 H159          -7.2843     2.3397    -0.7420 H       
 160 H160          -4.2677     2.7972    -0.7328 H       
 161 H161          -6.0183     1.0293     1.0356 H       
 162 H162          -4.2389     1.0735     1.0495 H       
 163 H163          -5.1687     2.5034     1.5586 H       
 164 H164          -5.1077     1.3465    -2.5600 H       
 165 H165          -4.2033     0.3979    -1.3556 H       
 166 H166          -5.9827     0.3537    -1.3695 H       
 167 H167          -8.8075     2.6660    -2.3139 H       
 168 H168         -10.0401     5.3124    -2.3837 H       
 169 H169         -10.2372     3.3617    -4.7213 H       
 170 H170         -11.2707     4.7958    -4.5123 H       
 171 H171          -9.2593     6.2459    -4.5170 H       
 172 H172          -8.2258     4.8118    -4.7261 H       
 173 H173          -9.3678     4.3011    -6.8670 H       
 174 H174         -10.4012     5.7351    -6.6580 H       
 175 H175          -7.7024     6.5517    -6.4961 H       
 176 H176          -9.2773     5.9455   -10.1223 H       
 177 H177          -6.7164     7.5433    -8.4235 H       
 178 H178          -7.3886     7.2801    -9.9406 H       
 179 H179         -12.6552     4.8002    -2.7859 H       
 180 H180         -13.3714     2.1848    -1.7022 H       
 181 H181         -13.8523     4.7736    -0.1609 H       
 182 H182         -14.6073     3.2098     0.2301 H       
 183 H183         -12.3622     2.2027     0.5369 H       
 184 H184         -11.6073     3.7665     0.1459 H       
 185 H185         -10.8432     3.0018     2.6145 H       
 186 H186         -11.7427     3.7393     3.8268 H       
 187 H187         -16.0217     2.3723    -1.2515 H       
 188 H188         -17.2463     4.2847    -3.0875 H       
 189 H189         -17.3761     1.2774    -3.5935 H       
 190 H190         -18.2918     2.5196    -4.4803 H       
 191 H191         -16.5171     2.4639    -4.6046 H       
 192 H192         -19.8287     3.5214    -3.1931 H       
 193 H193         -20.6165     2.2055    -0.7080 H       
 194 H194         -21.1989     5.1516    -1.2466 H       
 195 H195         -21.9787     4.1841     0.0278 H       
 196 H196         -19.7595     3.7150     1.0296 H       
 197 H197         -18.9797     4.6825    -0.2448 H       
 198 H198         -18.3828     5.7356     2.1630 H       
 199 H199         -19.3613     7.0433     2.5570 H       
 200 H200         -23.2910     2.5255    -0.6234 H       
 201 H201         -24.3894     2.7350    -3.3211 H       
 202 H202         -24.3962     0.1143    -1.7588 H       
 203 H203         -25.3830     0.4303    -3.2061 H       
 204 H204         -23.3232     0.8716    -4.5141 H       
 205 H205         -22.3364     0.5556    -3.0668 H       
 206 H206         -23.2404    -1.7506    -2.9540 H       
 207 H207         -24.2272    -1.4346    -4.4013 H       
 208 H208         -21.5328    -0.8534    -5.0169 H       
 209 H209         -20.8405    -4.0700    -6.1912 H       
 210 H210         -23.6229    -3.5806    -4.1873 H       
 211 H211         -22.7423    -4.7305    -5.0388 H       
 212 H212         -26.9591     1.9745    -3.0367 H       
 213 H213         -27.9119     2.5521    -0.3374 H       
 214 H214         -28.5003     4.4079    -2.6880 H       
 215 H215         -29.2967     4.4842    -1.0980 H       
 216 H216         -27.0993     4.8696    -0.0157 H       
 217 H217         -26.3028     4.7932    -1.6057 H       
 218 H218         -27.6440     6.7335    -2.3707 H       
 219 H219         -28.4405     6.8098    -0.7807 H       
 220 H220         -25.6464     6.9162    -0.3825 H       
 221 H221         -25.5080    10.4056    -0.4807 H       
 222 H222         -28.2827     8.8011    -1.7935 H       
 223 H223         -27.5820    10.3024    -1.5146 H       
 224 H224         -31.4182     0.0885    -1.6782 H       
 225 H225         -33.6147     1.5234    -0.7483 H       
 226 H226         -32.6077     0.4704     0.2988 H       
 227 H227         -32.3974     3.5060    -0.1169 H       
 228 H228         -32.3583     2.5848     1.4240 H       
 229 H229         -30.1633     1.7015     0.9773 H       
 230 H230         -30.0216     3.3526     0.2998 H       
 231 H231         -33.7673     0.5673    -2.8957 H       
 232 H232         -33.6204     2.9757    -4.5405 H       
 233 H233         -33.2917     0.1789    -5.7147 H       
 234 H234         -33.6179     1.6443    -6.6711 H       
 235 H235         -31.5357     2.6740    -5.8035 H       
 236 H236         -31.2095     1.2086    -4.8471 H       
 237 H237         -29.1592     1.6399    -6.5421 H       
 238 H238         -29.2653     0.7070    -7.9353 H       
 239 H239         -35.5731     2.6351    -6.3664 H       
 240 H240         -37.7107     0.9625    -5.2889 H       
 241 H241         -37.8766     4.0090    -5.3031 H       
 242 H242         -39.2639     2.9229    -5.0506 H       
 243 H243         -38.1336     1.9385    -3.0752 H       
 244 H244         -36.7463     3.0247    -3.3277 H       
 245 H245         -38.2304     4.9891    -3.0323 H       
 246 H246         -39.6178     3.9029    -2.7797 H       
 247 H247         -37.5912     3.2001    -0.9424 H       
 248 H248         -39.9028     6.3508    -0.0897 H       
 249 H249         -37.7937     3.9798     1.2984 H       
 250 H250         -38.7683     5.3045     1.6421 H       
 251 H251         -39.8686     1.6440    -6.7524 H       
 252 H252         -39.0657     2.5649    -9.4047 H       
 253 H253         -40.0006    -0.2928    -8.8868 H       
 254 H254         -39.8850     0.4562   -10.4974 H       
 255 H255         -37.4639     0.8538   -10.1386 H       
 256 H256         -37.5795     0.1049    -8.5280 H       
 257 H257         -35.7954    -1.2590   -10.0177 H       
 258 H258         -36.4531    -2.6423   -10.7081 H       
 259 H259         -41.2496     2.1446   -10.9267 H       
 260 H260         -43.3684     3.4197    -9.3735 H       
 261 H261         -43.1536     2.6567   -12.3198 H       
 262 H262         -44.5220     3.5403   -11.6022 H       
 263 H263         -42.9767     5.3330   -10.8629 H       
 264 H264         -41.6083     4.4494   -11.5805 H       
 265 H265         -42.6788     4.6037   -13.8118 H       
 266 H266         -44.0472     5.4873   -13.0942 H       
 267 H267         -42.5019     7.2801   -12.3549 H       
 268 H268         -41.1335     6.3965   -13.0725 H       
 269 H269         -41.9903     8.0761   -14.5669 H       
 270 H270         -42.2827     6.5692   -15.2070 H       
 271 H271         -45.7670     2.4525   -10.1311 H       
 272 H272         -45.6986    -0.4626   -10.2909 H       
 273 H273         -46.9929    -0.7662    -8.1978 H       
 274 H274         -45.4007    -0.0432    -7.8652 H       
 275 H275         -46.8594     0.9768    -7.8624 H       
 276 H276         -49.3093    -0.1523   -10.8531 H       
 277 H277          12.4705    22.0941     4.2260 H       
 278 H278          11.0478    23.0794     4.6424 H       
 279 H279          12.0288    22.3432     5.9322 H       
 280 H280          11.3529    20.0865     5.1583 H       
 281 H281           9.9302    21.0718     5.5746 H       
 282 H282           9.6226    21.6393     3.1804 H       
 283 H283          11.0453    20.6540     2.7641 H       
 284 H284           9.9277    18.6463     3.6963 H       
 285 H285           8.5050    19.6316     4.1127 H       
 286 H286           8.1974    20.1991     1.7185 H       
 287 H287           9.6202    19.2138     1.3022 H       
 288 H288           8.5026    17.2062     2.2344 H       
 289 H289           7.0799    18.1915     2.6507 H       
 290 H290           6.7723    18.7589     0.2566 H       
 291 H291           8.1950    17.7736    -0.1598 H       
 292 H292           7.0774    15.7660     0.7725 H       
 293 H293           5.6547    16.7513     1.1888 H       
 294 H294           5.3471    17.3188    -1.2054 H       
 295 H295           6.7699    16.3335    -1.6217 H       
 296 H296           5.6523    14.3258    -0.6895 H       
 297 H297           4.2295    15.3111    -0.2731 H       
 298 H298           3.9220    15.8786    -2.6673 H       
 299 H299           5.3447    14.8933    -3.0836 H       
 300 H300           4.2271    12.8857    -2.1514 H       
 301 H301           2.8044    13.8710    -1.7351 H       
 302 H302           2.4968    14.4384    -4.1292 H       
 303 H303           3.9195    13.4531    -4.5455 H       
 304 H304           2.8020    11.4455    -3.6133 H       
 305 H305           1.3792    12.4308    -3.1970 H       
 306 H306           2.4944    12.0130    -6.0075 H       
 307 H307           1.0717    12.9983    -5.5912 H       
@<TRIPOS>BOND
   1    1    2 2
   2    1    4 1
   3    1   14 am
   4    3    4 1
   5    3  144 1
   6    3  145 1
   7    4    5 1
   8    4  146 1
   9    5    6 1
  10    5  147 1
  11    5  148 1
  12    6    7 1
  13    6  149 1
  14    6  150 1
  15    7    8 1
  16    7  151 1
  17    7  152 1
  18    8    9 1
  19    8  153 1
  20    9   10 2
  21    9   11 1
  22   10  154 1
  23   11  127 am
  24   11  155 1
  25   12   13 2
  26   12   15 1
  27   12   22 am
  28   14   15 1
  29   14  156 1
  30   15   16 1
  31   15  157 1
  32   16   17 1
  33   16  158 1
  34   16  159 1
  35   17   18 1
  36   17   19 1
  37   17  160 1
  38   18  161 1
  39   18  162 1
  40   18  163 1
  41   19  164 1
  42   19  165 1
  43   19  166 1
  44   20   21 2
  45   20   23 1
  46   20   33 am
  47   22   23 1
  48   22  167 1
  49   23   24 1
  50   23  168 1
  51   24   25 1
  52   24  169 1
  53   24  170 1
  54   25   26 1
  55   25  171 1
  56   25  172 1
  57   26   27 1
  58   26  173 1
  59   26  174 1
  60   27   28 1
  61   27  175 1
  62   28   29 2
  63   28   30 1
  64   29  176 1
  65   30  177 1
  66   30  178 1
  67   31   32 2
  68   31   34 1
  69   31   42 am
  70   33   34 1
  71   33  179 1
  72   34   35 1
  73   34  180 1
  74   35   36 1
  75   35  181 1
  76   35  182 1
  77   36   37 1
  78   36  183 1
  79   36  184 1
  80   37   38 2
  81   37   39 am
  82   39  185 1
  83   39  186 1
  84   40   41 2
  85   40   43 1
  86   40   47 am
  87   42   43 1
  88   42  187 1
  89   43   44 1
  90   43  188 1
  91   44  189 1
  92   44  190 1
  93   44  191 1
  94   45   46 2
  95   45   48 1
  96   45   56 am
  97   47   48 1
  98   47  192 1
  99   48   49 1
 100   48  193 1
 101   49   50 1
 102   49  194 1
 103   49  195 1
 104   50   51 1
 105   50  196 1
 106   50  197 1
 107   51   52 2
 108   51   53 am
 109   53  198 1
 110   53  199 1
 111   54   55 2
 112   54   57 1
 113   54   67 am
 114   56   57 1
 115   56  200 1
 116   57   58 1
 117   57  201 1
 118   58   59 1
 119   58  202 1
 120   58  203 1
 121   59   60 1
 122   59  204 1
 123   59  205 1
 124   60   61 1
 125   60  206 1
 126   60  207 1
 127   61   62 1
 128   61  208 1
 129   62   63 2
 130   62   64 1
 131   63  209 1
 132   64  210 1
 133   64  211 1
 134   65   66 2
 135   65   68 1
 136   65   78 am
 137   67   68 1
 138   67  212 1
 139   68   69 1
 140   68  213 1
 141   69   70 1
 142   69  214 1
 143   69  215 1
 144   70   71 1
 145   70  216 1
 146   70  217 1
 147   71   72 1
 148   71  218 1
 149   71  219 1
 150   72   73 1
 151   72  220 1
 152   73   74 2
 153   73   75 1
 154   74  221 1
 155   75  222 1
 156   75  223 1
 157   76   77 2
 158   76   85 am
 159   76   79 1
 160   78   79 1
 161   78   82 1
 162   79   80 1
 163   79  224 1
 164   80   81 1
 165   80  225 1
 166   80  226 1
 167   81   82 1
 168   81  227 1
 169   81  228 1
 170   82  229 1
 171   82  230 1
 172   83   84 2
 173   83   86 1
 174   83   94 am
 175   85   86 1
 176   85  231 1
 177   86   87 1
 178   86  232 1
 179   87   88 1
 180   87  233 1
 181   87  234 1
 182   88   89 1
 183   88  235 1
 184   88  236 1
 185   89   90 2
 186   89   91 am
 187   91  237 1
 188   91  238 1
 189   92   93 2
 190   92   95 1
 191   92  105 am
 192   94   95 1
 193   94  239 1
 194   95   96 1
 195   95  240 1
 196   96   97 1
 197   96  241 1
 198   96  242 1
 199   97   98 1
 200   97  243 1
 201   97  244 1
 202   98   99 1
 203   98  245 1
 204   98  246 1
 205   99  100 1
 206   99  247 1
 207  100  101 2
 208  100  102 1
 209  101  248 1
 210  102  249 1
 211  102  250 1
 212  103  104 2
 213  103  106 1
 214  103  114 am
 215  105  106 1
 216  105  251 1
 217  106  107 1
 218  106  252 1
 219  107  108 1
 220  107  253 1
 221  107  254 1
 222  108  109 1
 223  108  255 1
 224  108  256 1
 225  109  110 2
 226  109  111 am
 227  111  257 1
 228  111  258 1
 229  112  113 2
 230  112  115 1
 231  112  123 am
 232  114  115 1
 233  114  259 1
 234  115  116 1
 235  115  260 1
 236  116  117 1
 237  116  261 1
 238  116  262 1
 239  117  118 1
 240  117  263 1
 241  117  264 1
 242  118  119 1
 243  118  265 1
 244  118  266 1
 245  119  120 1
 246  119  267 1
 247  119  268 1
 248  120  269 1
 249  120  270 1
 250  121  122 2
 251  121  124 1
 252  121  126 1
 253  123  124 1
 254  123  271 1
 255  124  125 1
 256  124  272 1
 257  125  273 1
 258  125  274 1
 259  125  275 1
 260  126  276 1
 261  127  128 2
 262  127  143 1
 263  129  130 1
 264  129  277 1
 265  129  278 1
 266  129  279 1
 267  130  131 1
 268  130  280 1
 269  130  281 1
 270  131  132 1
 271  131  282 1
 272  131  283 1
 273  132  133 1
 274  132  284 1
 275  132  285 1
 276  133  134 1
 277  133  286 1
 278  133  287 1
 279  134  135 1
 280  134  288 1
 281  134  289 1
 282  135  136 1
 283  135  290 1
 284  135  291 1
 285  136  137 1
 286  136  292 1
 287  136  293 1
 288  137  138 1
 289  137  294 1
 290  137  295 1
 291  138  139 1
 292  138  296 1
 293  138  297 1
 294  139  140 1
 295  139  298 1
 296  139  299 1
 297  140  141 1
 298  140  300 1
 299  140  301 1
 300  141  142 1
 301  141  302 1
 302  141  303 1
 303  142  143 1
 304  142  304 1
 305  142  305 1
 306  143  306 1
 307  143  307 1

#	End of record

