#	Name: ASD02198476
#	Creating user name:	WinNT
#	Creation time:	15. 06. 2019 20:19

#	Modifying user name:	WinNT
#	Modification time:	15. 06. 2019 20:19

#	Program:	/corina/corina34_cracker 3.40 0067  02.08.2006

@<TRIPOS>MOLECULE
ASD02198476
  42   45    0    0    0
SMALL
NO_CHARGES


@<TRIPOS>ATOM
   1 C1            -0.0439     1.5053    -0.1135 C.2     
   2 C2            -0.0746     0.1656     0.0993 C.2     
   3 N3             1.0692    -0.5368     0.2616 N.pl3   
   4 N4             2.2341    -0.0029     0.2275 N.2     
   5 C5             2.4066     1.2863     0.0289 C.2     
   6 C6             1.2214     2.1383    -0.1595 C.2     
   7 C7             0.9767    -1.9159     0.4781 C.ar    
   8 C8             1.4825    -3.8566     1.8058 C.ar    
   9 C9             0.7938    -4.6471     0.9054 C.ar    
  10 C10            0.2018    -4.0792    -0.2084 C.ar    
  11 C11            0.2911    -2.7179    -0.4243 C.ar    
  12 C12            3.7640     1.8675    -0.0038 C.2     
  13 N13            4.3066     2.6069    -1.0170 N.pl3   
  14 N14            5.6086     2.9579    -0.6391 N.2     
  15 C15            5.8519     2.4588     0.5465 C.2     
  16 C16            4.7196     1.7716     0.9840 C.2     
  17 C17            3.6739     2.9516    -2.2182 C.ar    
  18 C18            2.9067     2.0126    -2.8950 C.ar    
  19 O19            1.3253     3.3413    -0.3477 O.2     
  20 C20            1.5774    -2.4897     1.5973 C.ar    
  21 C21            3.8078     4.2349    -2.7317 C.ar    
  22 C22            3.1827     4.5717    -3.9163 C.ar    
  23 C23            2.4241     3.6327    -4.5909 C.ar    
  24 C24            2.2841     2.3557    -4.0791 C.ar    
  25 O25            2.2548    -1.7109     2.4816 O.3     
  26 C26            2.8446    -2.3677     3.6053 C.3     
  27 H27           -0.9549     2.0696    -0.2480 H       
  28 H28           -1.0248    -0.3461     0.1400 H       
  29 H29            1.9431    -4.3035     2.6744 H       
  30 H30            0.7213    -5.7121     1.0696 H       
  31 H31           -0.3350    -4.7015    -0.9092 H       
  32 H32           -0.1724    -2.2775    -1.2947 H       
  33 H33            6.7752     2.5648     1.0965 H       
  34 H34            4.6134     1.2522     1.9250 H       
  35 H35            2.7973     1.0150    -2.4960 H       
  36 H36            4.3999     4.9688    -2.2052 H       
  37 H37            3.2862     5.5697    -4.3161 H       
  38 H38            1.9363     3.8986    -5.5170 H       
  39 H39            1.6913     1.6244    -4.6084 H       
  40 H40            2.0665    -2.8623     4.1867 H       
  41 H41            3.5640    -3.1087     3.2566 H       
  42 H42            3.3533    -1.6332     4.2296 H       
@<TRIPOS>BOND
   1    1    2 2
   2    1    6 1
   3    1   27 1
   4    2    3 1
   5    2   28 1
   6    3    4 1
   7    3    7 1
   8    4    5 2
   9    5    6 1
  10    5   12 1
  11    6   19 2
  12    7   20 ar
  13    7   11 ar
  14    8    9 ar
  15    8   20 ar
  16    8   29 1
  17    9   10 ar
  18    9   30 1
  19   10   11 ar
  20   10   31 1
  21   11   32 1
  22   12   13 1
  23   12   16 2
  24   13   14 1
  25   13   17 1
  26   14   15 2
  27   15   16 1
  28   15   33 1
  29   16   34 1
  30   17   21 ar
  31   17   18 ar
  32   18   24 ar
  33   18   35 1
  34   20   25 1
  35   21   22 ar
  36   21   36 1
  37   22   23 ar
  38   22   37 1
  39   23   24 ar
  40   23   38 1
  41   24   39 1
  42   25   26 1
  43   26   40 1
  44   26   41 1
  45   26   42 1

#	End of record

