#	Name: ASD08151178
#	Creating user name:	WinNT
#	Creation time:	15. 06. 2019 21:17

#	Modifying user name:	WinNT
#	Modification time:	15. 06. 2019 21:17

#	Program:	/corina/corina34_cracker 3.40 0067  02.08.2006

@<TRIPOS>MOLECULE
ASD08151178
  35   37    0    0    0
SMALL
NO_CHARGES


@<TRIPOS>ATOM
   1 C1            -0.0187     1.5258     0.0104 C.3     
   2 C2             0.0021    -0.0041     0.0020 C.3     
   3 N3             4.1762     2.6205     2.2804 N.ar    
   4 C4             5.4070     3.0736     2.2735 C.ar    
   5 C5             6.0137     3.5262     1.1044 C.ar    
   6 C6             5.3230     3.5046    -0.0740 C.ar    
   7 C7             4.0024     3.0174    -0.0612 C.ar    
   8 C8             3.2324     2.9654    -1.2357 C.ar    
   9 C9             1.9553     2.4882    -1.1931 C.ar    
  10 C10            1.3951     2.0474    -0.0003 C.ar    
  11 C11            2.1199     2.0821     1.1779 C.ar    
  12 C12            3.4477     2.5728     1.1633 C.ar    
  13 C13            1.5116     1.6102     2.4436 C.ar    
  14 C14            2.0262     0.4878     3.0915 C.ar    
  15 C15            1.4545     0.0530     4.2721 C.ar    
  16 C16            0.3724     0.7308     4.8109 C.ar    
  17 C17           -0.1409     1.8440     4.1710 C.ar    
  18 C18            0.4259     2.2903     2.9944 C.ar    
  19 F19            1.9509    -1.0345     4.9017 F       
  20 Cl20           3.9061     3.5094    -2.7403 Cl      
  21 N21           -0.7292     2.0124    -1.1797 N.3     
  22 H22           -0.5289     1.8773     0.9072 H       
  23 H23            0.5293    -0.3651     0.8851 H       
  24 H24           -1.0205    -0.3814     0.0098 H       
  25 H25            0.5123    -0.3556    -0.8948 H       
  26 H26            5.9644     3.0966     3.1983 H       
  27 H27            7.0287     3.8942     1.1295 H       
  28 H28            5.7775     3.8520    -0.9901 H       
  29 H29            1.3706     2.4522    -2.1005 H       
  30 H30            2.8692    -0.0407     2.6715 H       
  31 H31           -0.0718     0.3881     5.7337 H       
  32 H32           -0.9848     2.3678     4.5951 H       
  33 H33            0.0265     3.1628     2.4987 H       
  34 H34           -0.2753     1.6996    -2.0248 H       
  35 H35           -1.6976     1.7297    -1.1634 H       
@<TRIPOS>BOND
   1    1    2 1
   2    1   10 1
   3    1   21 1
   4    1   22 1
   5    2   23 1
   6    2   24 1
   7    2   25 1
   8    3    4 ar
   9    3   12 ar
  10    4    5 ar
  11    4   26 1
  12    5    6 ar
  13    5   27 1
  14    6    7 ar
  15    6   28 1
  16    7    8 ar
  17    7   12 ar
  18    8    9 ar
  19    8   20 1
  20    9   10 ar
  21    9   29 1
  22   10   11 ar
  23   11   12 ar
  24   11   13 1
  25   13   14 ar
  26   13   18 ar
  27   14   15 ar
  28   14   30 1
  29   15   16 ar
  30   15   19 1
  31   16   17 ar
  32   16   31 1
  33   17   18 ar
  34   17   32 1
  35   18   33 1
  36   21   34 1
  37   21   35 1

#	End of record

