#	Name: ASD01412061
#	Creating user name:	WinNT
#	Creation time:	15. 06. 2019 19:20

#	Modifying user name:	WinNT
#	Modification time:	15. 06. 2019 19:20

#	Program:	/corina/corina34_cracker 3.40 0067  02.08.2006

@<TRIPOS>MOLECULE
ASD01412061
  62   66    0    0    0
SMALL
NO_CHARGES


@<TRIPOS>ATOM
   1 F1             1.1455     2.1135     0.0303 F       
   2 C2            -0.0147     1.4213     0.0247 C.ar    
   3 C3             0.0105     0.0240    -0.0013 C.ar    
   4 C4            -1.1697    -0.7009    -0.0079 C.ar    
   5 C5            -2.3880    -0.0330     0.0119 C.ar    
   6 C6            -2.4044     1.3747     0.0385 C.ar    
   7 C7            -1.2045     2.0911     0.0501 C.ar    
   8 N8            -3.5774    -0.7273     0.0054 N.pl3   
   9 C9            -4.7757    -0.0877     0.0238 C.2     
  10 C10           -4.8767     1.2612     0.0498 C.2     
  11 C11           -3.7042     2.0611     0.0592 C.2     
  12 O12           -3.7730     3.2796     0.0830 O.2     
  13 C13           -3.5496    -2.1918    -0.0223 C.3     
  14 C14           -3.5322    -2.7207     1.3887 C.ar    
  15 C15           -4.7213    -2.9861     2.0418 C.ar    
  16 C16           -4.7059    -3.4712     3.3360 C.ar    
  17 C17           -3.5001    -3.6913     3.9776 C.ar    
  18 C18           -2.3104    -3.4255     3.3234 C.ar    
  19 C19           -2.3269    -2.9457     2.0273 C.ar    
  20 Cl20          -3.4800    -4.3001     5.6033 Cl      
  21 N21           -6.1430     1.8706     0.0679 N.am    
  22 C22           -6.4847     2.6845     1.0864 C.2     
  23 N23            1.2327    -0.6450    -0.0212 N.3     
  24 C24            1.3724    -1.5215     1.1501 C.3     
  25 C25            2.6889    -2.2958     1.0504 C.3     
  26 N26            3.8077    -1.3464     0.9701 N.3     
  27 C27            3.6680    -0.4699    -0.2012 C.3     
  28 C28            2.3515     0.3044    -0.1015 C.3     
  29 C29           -7.7925     3.4322     1.0472 C.3     
  30 O30           -5.7395     2.8150     2.0346 O.2     
  31 C31           -7.9324     4.2652     2.2953 C.ar    
  32 C32           -7.4566     5.5629     2.3172 C.ar    
  33 C33           -7.5849     6.3269     3.4620 C.ar    
  34 C34           -8.1895     5.7934     4.5848 C.ar    
  35 C35           -8.6662     4.4960     4.5626 C.ar    
  36 C36           -8.5417     3.7334     3.4164 C.ar    
  37 H37           -1.1432    -1.7804    -0.0288 H       
  38 H38           -1.2182     3.1708     0.0705 H       
  39 H39           -5.6806    -0.6773     0.0170 H       
  40 H40           -4.4354    -2.5622    -0.5383 H       
  41 H41           -2.6558    -2.5283    -0.5476 H       
  42 H42           -5.6625    -2.8139     1.5409 H       
  43 H43           -5.6350    -3.6781     3.8463 H       
  44 H44           -1.3688    -3.5971     3.8238 H       
  45 H45           -1.3983    -2.7382     1.5165 H       
  46 H46           -6.7711     1.7054    -0.6526 H       
  47 H47            1.3734    -0.9180     2.0578 H       
  48 H48            0.5391    -2.2234     1.1805 H       
  49 H49            2.8084    -2.9250     1.9324 H       
  50 H50            2.6768    -2.9200     0.1569 H       
  51 H51            3.8851    -0.8061     1.8188 H       
  52 H52            4.5013     0.2320    -0.2317 H       
  53 H53            3.6670    -1.0734    -1.1089 H       
  54 H54            2.2320     0.9336    -0.9835 H       
  55 H55            2.3636     0.9286     0.7920 H       
  56 H56           -7.8133     4.0822     0.1724 H       
  57 H57           -8.6163     2.7207     0.9909 H       
  58 H58           -6.9842     5.9797     1.4399 H       
  59 H59           -7.2125     7.3405     3.4794 H       
  60 H60           -8.2892     6.3901     5.4795 H       
  61 H61           -9.1383     4.0791     5.4400 H       
  62 H62           -8.9142     2.7198     3.3990 H       
@<TRIPOS>BOND
   1    1    2 1
   2    2    3 ar
   3    2    7 ar
   4    3    4 ar
   5    3   23 1
   6    4    5 ar
   7    4   37 1
   8    5    6 ar
   9    5    8 1
  10    6    7 ar
  11    6   11 1
  12    7   38 1
  13    8    9 1
  14    8   13 1
  15    9   10 2
  16    9   39 1
  17   10   11 1
  18   10   21 1
  19   11   12 2
  20   13   14 1
  21   13   40 1
  22   13   41 1
  23   14   15 ar
  24   14   19 ar
  25   15   16 ar
  26   15   42 1
  27   16   17 ar
  28   16   43 1
  29   17   18 ar
  30   17   20 1
  31   18   19 ar
  32   18   44 1
  33   19   45 1
  34   21   22 am
  35   21   46 1
  36   22   29 1
  37   22   30 2
  38   23   24 1
  39   23   28 1
  40   24   25 1
  41   24   47 1
  42   24   48 1
  43   25   26 1
  44   25   49 1
  45   25   50 1
  46   26   27 1
  47   26   51 1
  48   27   28 1
  49   27   52 1
  50   27   53 1
  51   28   54 1
  52   28   55 1
  53   29   31 1
  54   29   56 1
  55   29   57 1
  56   31   32 ar
  57   31   36 ar
  58   32   33 ar
  59   32   58 1
  60   33   34 ar
  61   33   59 1
  62   34   35 ar
  63   34   60 1
  64   35   36 ar
  65   35   61 1
  66   36   62 1

#	End of record

