#	Name: ASD02440003
#	Creating user name:	WinNT
#	Creation time:	15. 06. 2019 20:21

#	Modifying user name:	WinNT
#	Modification time:	15. 06. 2019 20:21

#	Program:	/corina/corina34_cracker 3.40 0067  02.08.2006

@<TRIPOS>MOLECULE
ASD02440003
  60   64    0    0    0
SMALL
NO_CHARGES


@<TRIPOS>ATOM
   1 C1            -0.0029     1.5359    -0.8146 C.2     
   2 C2             0.0393     0.0731    -0.6167 C.ar    
   3 C3            -1.3009    -0.3349    -0.5571 C.ar    
   4 O4            -2.0701     0.7639    -0.7034 O.3     
   5 C5            -1.3245     1.8651    -0.8489 C.2     
   6 C6             1.0631    -0.8605    -0.4935 C.ar    
   7 C7             0.7535    -2.1915    -0.3122 C.ar    
   8 C8            -0.5711    -2.5977    -0.2529 C.ar    
   9 C9            -1.5935    -1.6809    -0.3738 C.ar    
  10 C10           -1.8655     3.2594    -1.0343 C.3     
  11 C11           -1.9396     3.5833    -2.5278 C.3     
  12 C12            1.1428     2.4480    -0.9419 C.2     
  13 C13            1.6544     3.1605     0.2455 C.ar    
  14 O14            1.6695     2.6158    -2.0260 O.2     
  15 C15            2.6717     4.1092     0.1089 C.ar    
  16 C16            3.1467     4.7721     1.2195 C.ar    
  17 C17            2.6152     4.4983     2.4750 C.ar    
  18 C18            1.6033     3.5548     2.6150 C.ar    
  19 C19            1.1188     2.8923     1.5083 C.ar    
  20 S20           -0.9512    -4.3025    -0.0208 S.o2    
  21 O21           -2.2991    -4.4734    -0.4369 O.2     
  22 O22            0.1325    -5.0345    -0.5766 O.2     
  23 N23           -0.9246    -4.5932     1.6093 N.am    
  24 C24            0.2562    -4.4091     2.3323 C.ar    
  25 O25            3.0857     5.1534     3.5668 O.3     
  26 Br26           0.8854     3.1868     4.3253 Br      
  27 Br27           4.5234     6.0554     1.0362 Br      
  28 C28            0.2333    -3.7227     3.5397 C.ar    
  29 C29            1.4026    -3.5429     4.2523 C.ar    
  30 C30            2.5953    -4.0454     3.7651 C.ar    
  31 C31            2.6216    -4.7292     2.5634 C.ar    
  32 C32            1.4551    -4.9171     1.8483 C.ar    
  33 S33            4.0848    -3.8133     4.6772 S.o2    
  34 O34            5.1486    -3.9116     3.7401 O.2     
  35 O35            3.8775    -2.6742     5.5010 O.2     
  36 N36            4.2407    -5.1072     5.6989 N.am    
  37 C37            4.4249    -6.3800     5.1822 C.2     
  38 S38            4.5998    -7.8007     6.1170 S.3     
  39 C39            4.7600    -8.7605     4.6485 C.2     
  40 C40            4.6687    -7.9373     3.6037 C.2     
  41 N41            4.4842    -6.6676     3.9190 N.2     
  42 H42            2.0947    -0.5444    -0.5400 H       
  43 H43            1.5448    -2.9202    -0.2164 H       
  44 H44           -2.6214    -2.0087    -0.3261 H       
  45 H45           -2.8627     3.3231    -0.5988 H       
  46 H46           -1.2068     3.9734    -0.5399 H       
  47 H47           -2.3309     4.5918    -2.6619 H       
  48 H48           -0.9424     3.5196    -2.9633 H       
  49 H49           -2.5983     2.8693    -3.0222 H       
  50 H50            3.0852     4.3221    -0.8658 H       
  51 H51            0.3329     2.1596     1.6178 H       
  52 H52           -1.7290    -4.8912     2.0620 H       
  53 H53            2.6165     5.9755     3.7647 H       
  54 H54           -0.6977    -3.3297     3.9206 H       
  55 H55            1.3856    -3.0090     5.1909 H       
  56 H56            3.5547    -5.1204     2.1857 H       
  57 H57            1.4763    -5.4516     0.9101 H       
  58 H58            4.2030    -4.9743     6.6590 H       
  59 H59            4.9066    -9.8296     4.6026 H       
  60 H60            4.7360    -8.2812     2.5821 H       
@<TRIPOS>BOND
   1    1    2 1
   2    1   12 1
   3    1    5 2
   4    2    3 ar
   5    2    6 ar
   6    3    4 1
   7    3    9 ar
   8    4    5 1
   9    5   10 1
  10    6    7 ar
  11    6   42 1
  12    7    8 ar
  13    7   43 1
  14    8    9 ar
  15    8   20 1
  16    9   44 1
  17   10   11 1
  18   10   45 1
  19   10   46 1
  20   11   47 1
  21   11   48 1
  22   11   49 1
  23   12   13 1
  24   12   14 2
  25   13   15 ar
  26   13   19 ar
  27   15   16 ar
  28   15   50 1
  29   16   17 ar
  30   16   27 1
  31   17   18 ar
  32   17   25 1
  33   18   19 ar
  34   18   26 1
  35   19   51 1
  36   20   21 2
  37   20   22 2
  38   20   23 am
  39   23   24 1
  40   23   52 1
  41   24   28 ar
  42   24   32 ar
  43   25   53 1
  44   28   29 ar
  45   28   54 1
  46   29   30 ar
  47   29   55 1
  48   30   31 ar
  49   30   33 1
  50   31   32 ar
  51   31   56 1
  52   32   57 1
  53   33   34 2
  54   33   35 2
  55   33   36 am
  56   36   37 1
  57   36   58 1
  58   37   38 1
  59   37   41 2
  60   38   39 1
  61   39   40 2
  62   39   59 1
  63   40   41 1
  64   40   60 1

#	End of record

