#	Name: ASD01150670
#	Creating user name:	WinNT
#	Creation time:	15. 06. 2019 19:04

#	Modifying user name:	WinNT
#	Modification time:	15. 06. 2019 19:04

#	Program:	/corina/corina34_cracker 3.40 0067  02.08.2006

@<TRIPOS>MOLECULE
ASD01150670
  52   54    0    0    0
SMALL
NO_CHARGES


@<TRIPOS>ATOM
   1 C1             1.9143     1.4016     0.9687 C.ar    
   2 C2             1.9596     0.0213     0.9430 C.ar    
   3 C3             0.4926     0.0046    -0.9573 C.ar    
   4 C4             0.4445     1.3911    -0.9341 C.ar    
   5 C5             1.1563     2.0910     0.0298 C.ar    
   6 N6             1.1105     3.4892     0.0567 N.am    
   7 C7            -0.0780     4.1147    -0.0078 C.2     
   8 N8            -0.1589     5.4581     0.0161 N.am    
   9 C9             0.9636     6.2013     0.1061 C.2     
  10 C10            2.2667     5.5231     0.1770 C.2     
  11 N11            2.3023     4.2168     0.1563 N.2     
  12 O12            0.8987     7.4163     0.1278 O.2     
  13 C13           -1.4670     6.1139    -0.0561 C.3     
  14 O14           -1.0968     3.4557    -0.0895 O.2     
  15 C15           -2.0092     6.3079     1.3365 C.ar    
  16 O16            3.4151     6.2432     0.2677 O.3     
  17 C17            1.2518    -0.6785    -0.0157 C.ar    
  18 N18           -0.2233    -0.7049    -1.9279 N.am    
  19 C19            0.2667    -1.8622    -2.4149 C.2     
  20 O20            1.3684    -2.2429    -2.0799 O.2     
  21 C21           -0.5545    -2.6831    -3.3755 C.3     
  22 C22           -1.7242     7.4674     2.0334 C.ar    
  23 C23           -2.2213     7.6466     3.3103 C.ar    
  24 C24           -3.0050     6.6643     3.8918 C.ar    
  25 C25           -3.2898     5.5035     3.1929 C.ar    
  26 C26           -2.7959     5.3288     1.9140 C.ar    
  27 F27           -3.4911     6.8383     5.1402 F       
  28 C28            4.6386     5.5078     0.3321 C.3     
  29 C29            5.8145     6.4817     0.4301 C.3     
  30 O30            5.7384     7.1978     1.6643 O.3     
  31 C31            6.7962     8.1392     1.8563 C.3     
  32 H32            2.4650     1.9454     1.7220 H       
  33 H33            2.5496    -0.5122     1.6735 H       
  34 H34           -0.1453     1.9245    -1.6649 H       
  35 H35           -1.3610     7.0833    -0.5431 H       
  36 H36           -2.1540     5.4921    -0.6301 H       
  37 H37            1.2893    -1.7577    -0.0331 H       
  38 H38           -1.0722    -0.3638    -2.2503 H       
  39 H39           -0.3365    -2.3725    -4.3973 H       
  40 H40           -0.3069    -3.7379    -3.2557 H       
  41 H41           -1.6140    -2.5328    -3.1682 H       
  42 H42           -1.1126     8.2333     1.5798 H       
  43 H43           -1.9983     8.5523     3.8547 H       
  44 H44           -3.9009     4.7366     3.6454 H       
  45 H45           -3.0179     4.4234     1.3687 H       
  46 H46            4.6282     4.8614     1.2097 H       
  47 H47            4.7446     4.8993    -0.5660 H       
  48 H48            6.7512     5.9257     0.3898 H       
  49 H49            5.7737     7.1854    -0.4014 H       
  50 H50            6.6666     8.6409     2.8153 H       
  51 H51            7.7532     7.6175     1.8456 H       
  52 H52            6.7758     8.8773     1.0544 H       
@<TRIPOS>BOND
   1    1    2 ar
   2    1    5 ar
   3    1   32 1
   4    2   17 ar
   5    2   33 1
   6    3    4 ar
   7    3   18 1
   8    3   17 ar
   9    4    5 ar
  10    4   34 1
  11    5    6 1
  12    6    7 am
  13    6   11 1
  14    7    8 am
  15    7   14 2
  16    8    9 am
  17    8   13 1
  18    9   10 1
  19    9   12 2
  20   10   11 2
  21   10   16 1
  22   13   15 1
  23   13   35 1
  24   13   36 1
  25   15   22 ar
  26   15   26 ar
  27   16   28 1
  28   17   37 1
  29   18   19 am
  30   18   38 1
  31   19   20 2
  32   19   21 1
  33   21   39 1
  34   21   40 1
  35   21   41 1
  36   22   23 ar
  37   22   42 1
  38   23   24 ar
  39   23   43 1
  40   24   25 ar
  41   24   27 1
  42   25   26 ar
  43   25   44 1
  44   26   45 1
  45   28   29 1
  46   28   46 1
  47   28   47 1
  48   29   30 1
  49   29   48 1
  50   29   49 1
  51   30   31 1
  52   31   50 1
  53   31   51 1
  54   31   52 1

#	End of record

