#	Name: ASD01913709
#	Creating user name:	WinNT
#	Creation time:	15. 06. 2019 20:02

#	Modifying user name:	WinNT
#	Modification time:	15. 06. 2019 20:02

#	Program:	/corina/corina34_cracker 3.40 0067  02.08.2006

@<TRIPOS>MOLECULE
ASD01913709
  42   44    0    0    0
SMALL
NO_CHARGES


@<TRIPOS>ATOM
   1 O1            -0.0163     1.3508     0.0095 O.3     
   2 C2             0.0021    -0.0041     0.0020 C.ar    
   3 N3             1.1629    -0.6408    -0.0125 N.ar    
   4 C4             1.2330    -1.9556    -0.0202 C.ar    
   5 C5             0.0719    -2.7293    -0.0137 C.ar    
   6 C6            -1.1744    -2.0856     0.0016 C.ar    
   7 C7            -1.1994    -0.7064     0.0154 C.ar    
   8 C8             0.1538    -4.2032    -0.0234 C.2     
   9 N9             1.3565    -4.8112    -0.0386 N.am    
  10 O10           -0.8637    -4.8686    -0.0177 O.2     
  11 C11            1.4378    -6.2739    -0.0482 C.3     
  12 C12            2.9063    -6.7030    -0.0649 C.3     
  13 C13            1.2480     2.0168     0.0010 C.3     
  14 C14            1.0303     3.5079     0.0111 C.ar    
  15 C15            0.9419     4.1854     1.2128 C.ar    
  16 C16            0.7422     5.5532     1.2220 C.ar    
  17 C17            0.6313     6.2436     0.0296 C.ar    
  18 C18            0.7206     5.5663    -1.1722 C.ar    
  19 C19            0.9247     4.1991    -1.1814 C.ar    
  20 C20            3.1050    -8.2238     0.0469 C.3     
  21 C21            4.2269    -8.0746    -0.9942 C.3     
  22 C22            3.5013    -6.8084    -1.4790 C.3     
  23 H23            2.1983    -2.4397    -0.0320 H       
  24 H24           -2.0916    -2.6557     0.0069 H       
  25 H25           -2.1409    -0.1774     0.0278 H       
  26 H26            2.1684    -4.2803    -0.0432 H       
  27 H27            0.9535    -6.6706     0.8441 H       
  28 H28            0.9364    -6.6598    -0.9358 H       
  29 H29            3.5226    -6.1301     0.6280 H       
  30 H30            1.8174     1.7267     0.8840 H       
  31 H31            1.8004     1.7363    -0.8958 H       
  32 H32            1.0285     3.6460     2.1444 H       
  33 H33            0.6724     6.0824     2.1609 H       
  34 H34            0.4745     7.3122     0.0368 H       
  35 H35            0.6337     6.1056    -2.1038 H       
  36 H36            0.9945     3.6699    -2.1203 H       
  37 H37            3.4581    -8.5473     1.0260 H       
  38 H38            2.2530    -8.8028    -0.3094 H       
  39 H39            5.2053    -7.8766    -0.5564 H       
  40 H40            4.2469    -8.8761    -1.7326 H       
  41 H41            2.7576    -7.0004    -2.2524 H       
  42 H42            4.1744    -5.9891    -1.7317 H       
@<TRIPOS>BOND
   1    1    2 1
   2    1   13 1
   3    2    3 ar
   4    2    7 ar
   5    3    4 ar
   6    4    5 ar
   7    4   23 1
   8    5    6 ar
   9    5    8 1
  10    6    7 ar
  11    6   24 1
  12    7   25 1
  13    8    9 am
  14    8   10 2
  15    9   11 1
  16    9   26 1
  17   11   12 1
  18   11   27 1
  19   11   28 1
  20   12   20 1
  21   12   22 1
  22   12   29 1
  23   13   14 1
  24   13   30 1
  25   13   31 1
  26   14   15 ar
  27   14   19 ar
  28   15   16 ar
  29   15   32 1
  30   16   17 ar
  31   16   33 1
  32   17   18 ar
  33   17   34 1
  34   18   19 ar
  35   18   35 1
  36   19   36 1
  37   20   21 1
  38   20   37 1
  39   20   38 1
  40   21   22 1
  41   21   39 1
  42   21   40 1
  43   22   41 1
  44   22   42 1

#	End of record

