#	Name: ASD07930509
#	Creating user name:	WinNT
#	Creation time:	15. 06. 2019 21:12

#	Modifying user name:	WinNT
#	Modification time:	15. 06. 2019 21:12

#	Program:	/corina/corina34_cracker 3.40 0067  02.08.2006

@<TRIPOS>MOLECULE
ASD07930509
  49   51    0    0    0
SMALL
NO_CHARGES


@<TRIPOS>ATOM
   1 C1            -0.0343     1.4582     0.0425 C.3     
   2 N2             0.7952    -0.4133    -2.1302 N.2     
   3 N3            -0.8904    -1.7835    -1.2685 N.pl3   
   4 C4            -0.9150    -2.8271    -0.2382 C.3     
   5 C5            -1.2300    -2.1885     1.1215 C.3     
   6 S6             0.0061    -0.8913     1.4435 S.o2    
   7 N7            -0.0141    -0.0067     0.0315 N.am    
   8 C8            -0.0113    -0.7260    -1.1551 C.2     
   9 C9             0.4500    -3.5153    -0.1755 C.3     
  10 C10           -1.9765    -3.8423    -0.5755 C.ar    
  11 C11           -2.8068    -3.6380    -1.6597 C.ar    
  12 C12           -3.7850    -4.5740    -1.9701 C.ar    
  13 C13           -3.9256    -5.7134    -1.1890 C.ar    
  14 C14           -3.0929    -5.9137    -0.1053 C.ar    
  15 C15           -2.1147    -4.9822     0.1989 C.ar    
  16 O16           -0.4577     0.0117     2.4378 O.2     
  17 O17            1.3140    -1.4440     1.5004 O.2     
  18 F18           -1.3013    -5.1800     1.2593 F       
  19 N19           -4.6278    -4.3689    -3.0681 N.am    
  20 C20           -5.0478    -5.4192    -3.8008 C.2     
  21 O21           -4.6185    -6.5323    -3.5690 O.2     
  22 C22           -6.0326    -5.2169    -4.8888 C.ar    
  23 N23           -6.4979    -3.9977    -5.1371 N.ar    
  24 C24           -6.4574    -6.3044    -5.6447 C.ar    
  25 C25           -7.3836    -6.0972    -6.6639 C.ar    
  26 C26           -7.8472    -4.8034    -6.8834 C.ar    
  27 C27           -7.3733    -3.7714    -6.0931 C.ar    
  28 O28           -7.8233    -7.1319    -7.4248 O.3     
  29 C29           -8.7735    -6.8270    -8.4476 C.3     
  30 H30            0.9882     1.8357     0.0394 H       
  31 H31           -0.5582     1.8209    -0.8419 H       
  32 H32           -0.5480     1.8078     0.9380 H       
  33 H33            1.4070     0.3331    -2.0331 H       
  34 H34           -1.4884    -1.8387    -2.0302 H       
  35 H35           -2.2270    -1.7484     1.0987 H       
  36 H36           -1.1800    -2.9460     1.9037 H       
  37 H37            1.2165    -2.7804     0.0704 H       
  38 H38            0.4311    -4.2908     0.5903 H       
  39 H39            0.6749    -3.9651    -1.1426 H       
  40 H40           -2.6960    -2.7510    -2.2657 H       
  41 H41           -4.6858    -6.4423    -1.4284 H       
  42 H42           -3.2019    -6.7998     0.5025 H       
  43 H43           -4.9098    -3.4707    -3.3019 H       
  44 H44           -6.0746    -7.2942    -5.4447 H       
  45 H45           -8.5658    -4.6064    -7.6652 H       
  46 H46           -7.7305    -2.7660    -6.2604 H       
  47 H47           -9.6668    -6.3948    -7.9967 H       
  48 H48           -8.3380    -6.1134    -9.1471 H       
  49 H49           -9.0405    -7.7403    -8.9794 H       
@<TRIPOS>BOND
   1    1    7 1
   2    1   30 1
   3    1   31 1
   4    1   32 1
   5    2    8 2
   6    2   33 1
   7    3    4 1
   8    3    8 1
   9    3   34 1
  10    4    5 1
  11    4    9 1
  12    4   10 1
  13    5    6 1
  14    5   35 1
  15    5   36 1
  16    6    7 am
  17    6   16 2
  18    6   17 2
  19    7    8 1
  20    9   37 1
  21    9   38 1
  22    9   39 1
  23   10   11 ar
  24   10   15 ar
  25   11   12 ar
  26   11   40 1
  27   12   13 ar
  28   12   19 1
  29   13   14 ar
  30   13   41 1
  31   14   15 ar
  32   14   42 1
  33   15   18 1
  34   19   20 am
  35   19   43 1
  36   20   21 2
  37   20   22 1
  38   22   23 ar
  39   22   24 ar
  40   23   27 ar
  41   24   25 ar
  42   24   44 1
  43   25   26 ar
  44   25   28 1
  45   26   27 ar
  46   26   45 1
  47   27   46 1
  48   28   29 1
  49   29   47 1
  50   29   48 1
  51   29   49 1

#	End of record

