#	Name: ASD05940070
#	Creating user name:	WinNT
#	Creation time:	15. 06. 2019 21:04

#	Modifying user name:	WinNT
#	Modification time:	15. 06. 2019 21:04

#	Program:	/corina/corina34_cracker 3.40 0067  02.08.2006

@<TRIPOS>MOLECULE
ASD05940070
  61   64    0    0    0
SMALL
NO_CHARGES


@<TRIPOS>ATOM
   1 N1            -0.0159     1.3198     0.0093 N.ar    
   2 C2             0.0021    -0.0041     0.0020 C.ar    
   3 N3             1.1339    -0.6929    -0.0101 N.ar    
   4 C4             2.3079    -0.0668    -0.0158 C.ar    
   5 C5             2.3276     1.3271    -0.0126 C.ar    
   6 C6             1.1197     2.0180     0.0022 C.ar    
   7 N7             3.5577     2.0071    -0.0281 N.am    
   8 N8             1.0978     3.4061     0.0094 N.pl3   
   9 N9            -1.2012    -0.6912     0.0077 N.pl3   
  10 C10           -2.4664     0.0473     0.0216 C.3     
  11 C11           -3.6340    -0.9414     0.0255 C.3     
  12 N12            3.4930    -0.7821    -0.0194 N.3     
  13 C13            4.5339    -0.1210    -0.8127 C.3     
  14 C14            4.6633     1.3231    -0.4023 C.2     
  15 O15            5.7478     1.8666    -0.4069 O.2     
  16 C16            3.2750    -2.1597    -0.4806 C.3     
  17 C17            4.6056    -2.8305    -0.7060 C.ar    
  18 C18            5.2165    -3.5183     0.3258 C.ar    
  19 C19            6.4370    -4.1335     0.1191 C.ar    
  20 C20            7.0463    -4.0613    -1.1196 C.ar    
  21 C21            6.4350    -3.3743    -2.1517 C.ar    
  22 C22            5.2124    -2.7628    -1.9462 C.ar    
  23 C23            9.4228    -6.7187    -2.2619 C.3     
  24 N24            8.1604    -6.1093    -1.8050 N.3     
  25 C25            7.1884    -6.1492    -2.9183 C.3     
  26 C26            7.6660    -7.3157    -3.8188 C.3     
  27 C27            9.2080    -7.1771    -3.7197 C.3     
  28 C28           -4.9553    -0.1701     0.0400 C.3     
  29 C29           -6.1230    -1.1588     0.0438 C.3     
  30 C30            8.3774    -4.7312    -1.3447 C.3     
  31 H31            3.6124     2.9426     0.2226 H       
  32 H32            1.9301     3.9043     0.0042 H       
  33 H33            0.2503     3.8777     0.0197 H       
  34 H34           -1.2059    -1.6612     0.0026 H       
  35 H35           -2.5142     0.6694     0.9154 H       
  36 H36           -2.5281     0.6790    -0.8645 H       
  37 H37           -3.5863    -1.5635    -0.8683 H       
  38 H38           -3.5723    -1.5731     0.9116 H       
  39 H39            5.4856    -0.6281    -0.6540 H       
  40 H40            4.2709    -0.1738    -1.8691 H       
  41 H41            2.7134    -2.7109     0.2737 H       
  42 H42            2.7125    -2.1456    -1.4141 H       
  43 H43            4.7404    -3.5747     1.2936 H       
  44 H44            6.9146    -4.6703     0.9254 H       
  45 H45            6.9113    -3.3177    -3.1193 H       
  46 H46            4.7348    -2.2260    -2.7525 H       
  47 H47           10.2264    -5.9835    -2.2189 H       
  48 H48            9.6684    -7.5766    -1.6358 H       
  49 H49            6.1858    -6.3479    -2.5398 H       
  50 H50            7.2068    -5.2104    -3.4719 H       
  51 H51            7.3340    -8.2756    -3.4230 H       
  52 H52            7.3270    -7.1802    -4.8458 H       
  53 H53            9.5729    -6.4240    -4.4182 H       
  54 H54            9.6934    -8.1366    -3.8975 H       
  55 H55           -5.0031     0.4520     0.9337 H       
  56 H56           -5.0171     0.4616    -0.8461 H       
  57 H57           -6.0752    -1.7809    -0.8499 H       
  58 H58           -6.0613    -1.7905     0.9299 H       
  59 H59           -7.0643    -0.6093     0.0542 H       
  60 H60            8.9384    -4.1802    -2.0995 H       
  61 H61            8.9400    -4.7443    -0.4113 H       
@<TRIPOS>BOND
   1    1    2 ar
   2    1    6 ar
   3    2    3 ar
   4    2    9 1
   5    3    4 ar
   6    4    5 ar
   7    4   12 1
   8    5    6 ar
   9    5    7 1
  10    6    8 1
  11    7   14 am
  12    7   31 1
  13    8   32 1
  14    8   33 1
  15    9   10 1
  16    9   34 1
  17   10   11 1
  18   10   35 1
  19   10   36 1
  20   11   28 1
  21   11   37 1
  22   11   38 1
  23   12   13 1
  24   12   16 1
  25   13   14 1
  26   13   39 1
  27   13   40 1
  28   14   15 2
  29   16   17 1
  30   16   41 1
  31   16   42 1
  32   17   18 ar
  33   17   22 ar
  34   18   19 ar
  35   18   43 1
  36   19   20 ar
  37   19   44 1
  38   20   21 ar
  39   20   30 1
  40   21   22 ar
  41   21   45 1
  42   22   46 1
  43   23   24 1
  44   23   27 1
  45   23   47 1
  46   23   48 1
  47   24   25 1
  48   24   30 1
  49   25   26 1
  50   25   49 1
  51   25   50 1
  52   26   27 1
  53   26   51 1
  54   26   52 1
  55   27   53 1
  56   27   54 1
  57   28   29 1
  58   28   55 1
  59   28   56 1
  60   29   57 1
  61   29   58 1
  62   29   59 1
  63   30   60 1
  64   30   61 1

#	End of record

