#	Name: ASD03320152
#	Creating user name:	WinNT
#	Creation time:	15. 06. 2019 20:36

#	Modifying user name:	WinNT
#	Modification time:	15. 06. 2019 20:36

#	Program:	/corina/corina34_cracker 3.40 0067  02.08.2006

@<TRIPOS>MOLECULE
ASD03320152
  45   47    0    0    0
SMALL
NO_CHARGES


@<TRIPOS>ATOM
   1 C1            -0.0181     1.4706     0.0148 C.2     
   2 C2             0.0015    -0.0045     0.0117 C.ar    
   3 C3             1.2205    -0.7002     0.0012 C.ar    
   4 C4             1.1911    -2.0690    -0.0013 C.ar    
   5 C5            -0.0388    -2.7267     0.0066 C.ar    
   6 N6            -1.1758    -2.0449     0.0165 N.ar    
   7 C7            -1.1918    -0.7281     0.0250 C.ar    
   8 O8             1.0269     2.0925     0.0082 O.2     
   9 N9            -1.1941     2.1289     0.0193 N.am    
  10 N10           -0.0728    -4.1113     0.0036 N.3     
  11 C11           -1.4619    -4.6058     0.0131 C.3     
  12 C12           -1.6310    -5.5177    -1.2203 C.3     
  13 C13           -0.1741    -5.9418    -1.5437 C.3     
  14 C14            0.6125    -4.6556    -1.1880 C.3     
  15 O15           -2.4299    -6.6583    -0.8996 O.3     
  16 C16           -1.2149     3.5246     0.1327 C.ar    
  17 C17           -2.1832     4.2615    -0.5363 C.ar    
  18 C18           -2.2033     5.6376    -0.4236 C.ar    
  19 C19           -1.2562     6.2839     0.3573 C.ar    
  20 C20           -0.2883     5.5484     1.0255 C.ar    
  21 C21           -0.2707     4.1718     0.9187 C.ar    
  22 O22           -1.2764     7.6390     0.4674 O.3     
  23 C23           -0.2715     8.2383     1.2878 C.3     
  24 C24           -0.4537     9.7574     1.2898 C.3     
  25 F25           -0.3864     7.7532     2.5950 F       
  26 F26            0.9937     7.9210     0.7822 F       
  27 Br27           2.8026    -3.0584    -0.0160 Br      
  28 H28            2.1602    -0.1679    -0.0051 H       
  29 H29           -2.1360    -0.2040     0.0377 H       
  30 H30           -2.0262     1.6360    -0.0560 H       
  31 H31           -1.6464    -5.1757     0.9237 H       
  32 H32           -2.1546    -3.7665    -0.0485 H       
  33 H33           -2.0649    -4.9636    -2.0526 H       
  34 H34            0.1380    -6.7765    -0.9162 H       
  35 H35           -0.0643    -6.1871    -2.6001 H       
  36 H36            0.5662    -3.9426    -2.0111 H       
  37 H37            1.6488    -4.8976    -0.9523 H       
  38 H38           -2.5666    -7.2638    -1.6410 H       
  39 H39           -2.9202     3.7586    -1.1448 H       
  40 H40           -2.9564     6.2110    -0.9438 H       
  41 H41            0.4492     6.0523     1.6326 H       
  42 H42            0.4803     3.5989     1.4425 H       
  43 H43           -1.4395    10.0046     1.6838 H       
  44 H44            0.3128    10.2145     1.9156 H       
  45 H45           -0.3642    10.1353     0.2713 H       
@<TRIPOS>BOND
   1    1    2 1
   2    1    8 2
   3    1    9 am
   4    2    3 ar
   5    2    7 ar
   6    3    4 ar
   7    3   28 1
   8    4    5 ar
   9    4   27 1
  10    5    6 ar
  11    5   10 1
  12    6    7 ar
  13    7   29 1
  14    9   16 1
  15    9   30 1
  16   10   11 1
  17   10   14 1
  18   11   12 1
  19   11   31 1
  20   11   32 1
  21   12   13 1
  22   12   15 1
  23   12   33 1
  24   13   14 1
  25   13   34 1
  26   13   35 1
  27   14   36 1
  28   14   37 1
  29   15   38 1
  30   16   17 ar
  31   16   21 ar
  32   17   18 ar
  33   17   39 1
  34   18   19 ar
  35   18   40 1
  36   19   20 ar
  37   19   22 1
  38   20   21 ar
  39   20   41 1
  40   21   42 1
  41   22   23 1
  42   23   24 1
  43   23   25 1
  44   23   26 1
  45   24   43 1
  46   24   44 1
  47   24   45 1

#	End of record

