#	Name: ASD03451008
#	Creating user name:	WinNT
#	Creation time:	15. 06. 2019 20:42

#	Modifying user name:	WinNT
#	Modification time:	15. 06. 2019 20:42

#	Program:	/corina/corina34_cracker 3.40 0067  02.08.2006

@<TRIPOS>MOLECULE
ASD03451008
  57   61    0    0    0
SMALL
NO_CHARGES


@<TRIPOS>ATOM
   1 C1            -0.1387     1.5995     0.5791 C.ar    
   2 C2            -0.1568     0.2237     0.4202 C.ar    
   3 C3             1.0183    -0.4655     0.2212 C.ar    
   4 C4             2.2435     0.2131     0.1770 C.ar    
   5 C5             2.2614     1.6040     0.3298 C.ar    
   6 C6             1.0541     2.2859     0.5352 C.ar    
   7 C7             3.4627    -0.5871    -0.0237 C.2     
   8 N8             4.5785    -0.3717     0.5850 N.2     
   9 C9             4.7257     0.7318     1.5344 C.3     
  10 C10            4.5169     2.0289     0.8044 C.2     
  11 N11            3.4011     2.3483     0.2824 N.2     
  12 C12            3.4034    -1.7119    -0.9861 C.ar    
  13 C13            2.4649    -1.7020    -2.0177 C.ar    
  14 C14            2.4150    -2.7523    -2.9112 C.ar    
  15 C15            3.2931    -3.8139    -2.7850 C.ar    
  16 C16            4.2262    -3.8295    -1.7637 C.ar    
  17 C17            4.2897    -2.7823    -0.8674 C.ar    
  18 C18            5.6733     2.9881     0.6865 C.3     
  19 C19            6.1381     3.4009     2.0845 C.3     
  20 C20            6.8264     2.3081    -0.0543 C.3     
  21 C21            3.6986     0.5971     2.6289 C.2     
  22 S22            2.9569     1.9369     3.4939 S.3     
  23 C23            1.9999     0.8221     4.4607 C.2     
  24 C24            2.2749    -0.4324     4.1002 C.2     
  25 C25            3.2087    -0.5564     3.0859 C.2     
  26 N26            5.2470     4.1796    -0.0595 N.3     
  27 C27            4.1792     4.8990     0.6591 C.3     
  28 C28            4.6706     6.3452     0.8795 C.3     
  29 C29            5.7482     6.5200    -0.2228 C.3     
  30 C30            6.3796     5.1062    -0.2701 C.3     
  31 H31           -1.0633     2.1359     0.7333 H       
  32 H32           -1.0952    -0.3099     0.4529 H       
  33 H33            0.9957    -1.5383     0.0985 H       
  34 H34            1.0595     3.3587     0.6602 H       
  35 H35            5.7267     0.7120     1.9653 H       
  36 H36            1.7785    -0.8742    -2.1169 H       
  37 H37            1.6887    -2.7458    -3.7105 H       
  38 H38            3.2497    -4.6341    -3.4863 H       
  39 H39            4.9090    -4.6610    -1.6702 H       
  40 H40            5.0186    -2.7955    -0.0706 H       
  41 H41            6.3782     2.5103     2.6652 H       
  42 H42            7.0240     4.0305     2.0017 H       
  43 H43            5.3431     3.9560     2.5825 H       
  44 H44            6.5245     2.0958    -1.0799 H       
  45 H45            7.6939     2.9681    -0.0601 H       
  46 H46            7.0824     1.3760     0.4495 H       
  47 H47            1.2973     1.1093     5.2291 H       
  48 H48            1.8020    -1.2865     4.5620 H       
  49 H49            3.5219    -1.5146     2.6986 H       
  50 H50            3.2680     4.9041     0.0609 H       
  51 H51            3.9918     4.4205     1.6203 H       
  52 H52            3.8556     7.0549     0.7378 H       
  53 H53            5.1114     6.4556     1.8703 H       
  54 H54            5.2911     6.7756    -1.1787 H       
  55 H55            6.4862     7.2677     0.0677 H       
  56 H56            7.1158     4.9926     0.5256 H       
  57 H57            6.8397     4.9284    -1.2421 H       
@<TRIPOS>BOND
   1    1    2 ar
   2    1    6 ar
   3    1   31 1
   4    2    3 ar
   5    2   32 1
   6    3    4 ar
   7    3   33 1
   8    4    5 ar
   9    4    7 1
  10    5    6 ar
  11    5   11 1
  12    6   34 1
  13    7    8 2
  14    7   12 1
  15    8    9 1
  16    9   10 1
  17    9   21 1
  18    9   35 1
  19   10   11 2
  20   10   18 1
  21   12   13 ar
  22   12   17 ar
  23   13   14 ar
  24   13   36 1
  25   14   15 ar
  26   14   37 1
  27   15   16 ar
  28   15   38 1
  29   16   17 ar
  30   16   39 1
  31   17   40 1
  32   18   19 1
  33   18   20 1
  34   18   26 1
  35   19   41 1
  36   19   42 1
  37   19   43 1
  38   20   44 1
  39   20   45 1
  40   20   46 1
  41   21   22 1
  42   21   25 2
  43   22   23 1
  44   23   24 2
  45   23   47 1
  46   24   25 1
  47   24   48 1
  48   25   49 1
  49   26   27 1
  50   26   30 1
  51   27   28 1
  52   27   50 1
  53   27   51 1
  54   28   29 1
  55   28   52 1
  56   28   53 1
  57   29   30 1
  58   29   54 1
  59   29   55 1
  60   30   56 1
  61   30   57 1

#	End of record

