#	Name: ASD09530038
#	Creating user name:	WinNT
#	Creation time:	15. 06. 2019 21:22

#	Modifying user name:	WinNT
#	Modification time:	15. 06. 2019 21:22

#	Program:	/corina/corina34_cracker 3.40 0067  02.08.2006

@<TRIPOS>MOLECULE
ASD09530038
  53   56    0    0    0
SMALL
NO_CHARGES


@<TRIPOS>ATOM
   1 C1            -0.0168     1.3905     0.0097 C.ar    
   2 C2             0.0021    -0.0041     0.0020 C.ar    
   3 C3             1.2224    -0.6792    -0.0133 C.ar    
   4 C4             2.4028     0.0352    -0.0207 C.ar    
   5 C5             2.3776     1.4184    -0.0126 C.ar    
   6 C6             1.1703     2.0938     0.0021 C.ar    
   7 C7             3.6705     2.1926    -0.0203 C.3     
   8 C8             4.0882     2.4588    -1.4435 C.2     
   9 N9             5.2227     3.1409    -1.6966 N.am    
  10 O10            3.4034     2.0592    -2.3613 O.2     
  11 C11            5.6287     3.3997    -3.0802 C.3     
  12 C12            6.5051     4.6248    -3.1258 C.ar    
  13 N13            7.1834     4.9795    -2.0523 N.ar    
  14 C14            7.9629     6.0428    -2.0434 C.ar    
  15 C15            8.0964     6.8321    -3.1761 C.ar    
  16 C16            7.3947     6.4867    -4.3269 C.ar    
  17 C17            6.5913     5.3585    -4.2944 C.ar    
  18 O18            8.9008     7.9275    -3.1621 O.3     
  19 C19            9.5861     8.2135    -1.9411 C.3     
  20 C20           10.4364     9.4733    -2.1166 C.3     
  21 C21            6.4061     2.1963    -3.6171 C.3     
  22 F22            9.6096    10.5512    -2.4509 F       
  23 F23           11.1072     9.7534    -0.9213 F       
  24 F24           11.3699     9.2674    -3.1381 F       
  25 C25           -1.2686    -0.7650     0.0106 C.ar    
  26 N26           -2.3293    -0.3162     0.6792 N.ar    
  27 C27           -3.4629    -0.9913     0.6885 C.ar    
  28 N28           -3.6188    -2.1316     0.0501 N.ar    
  29 C29           -2.6187    -2.6633    -0.6466 C.ar    
  30 C30           -1.3883    -1.9757    -0.6911 C.ar    
  31 N31           -2.4720    -3.7991    -1.3955 N.pl3   
  32 C32           -1.2026    -3.8630    -1.9070 C.2     
  33 C33           -0.4982    -2.7870    -1.5165 C.2     
  34 H34           -0.9587     1.9189     0.0170 H       
  35 H35            1.2434    -1.7590    -0.0189 H       
  36 H36            3.3484    -0.4864    -0.0325 H       
  37 H37            1.1570     3.1737     0.0084 H       
  38 H38            3.5298     3.1399     0.5003 H       
  39 H39            4.4442     1.6128     0.4831 H       
  40 H40            5.7704     3.4606    -0.9626 H       
  41 H41            4.7431     3.5634    -3.6942 H       
  42 H42            8.5029     6.3021    -1.1447 H       
  43 H43            7.4776     7.0811    -5.2248 H       
  44 H44            6.0323     5.0605    -5.1691 H       
  45 H45            8.8588     8.3740    -1.1453 H       
  46 H46           10.2303     7.3737    -1.6807 H       
  47 H47            6.7082     2.3888    -4.6466 H       
  48 H48            7.2917     2.0325    -3.0031 H       
  49 H49            5.7722     1.3101    -3.5841 H       
  50 H50           -4.2983    -0.5913     1.2440 H       
  51 H51           -3.1648    -4.4620    -1.5422 H       
  52 H52           -0.8252    -4.6578    -2.5333 H       
  53 H53            0.5292    -2.5654    -1.7650 H       
@<TRIPOS>BOND
   1    1    2 ar
   2    1    6 ar
   3    1   34 1
   4    2    3 ar
   5    2   25 1
   6    3    4 ar
   7    3   35 1
   8    4    5 ar
   9    4   36 1
  10    5    6 ar
  11    5    7 1
  12    6   37 1
  13    7    8 1
  14    7   38 1
  15    7   39 1
  16    8    9 am
  17    8   10 2
  18    9   11 1
  19    9   40 1
  20   11   12 1
  21   11   21 1
  22   11   41 1
  23   12   13 ar
  24   12   17 ar
  25   13   14 ar
  26   14   15 ar
  27   14   42 1
  28   15   16 ar
  29   15   18 1
  30   16   17 ar
  31   16   43 1
  32   17   44 1
  33   18   19 1
  34   19   20 1
  35   19   45 1
  36   19   46 1
  37   20   22 1
  38   20   23 1
  39   20   24 1
  40   21   47 1
  41   21   48 1
  42   21   49 1
  43   25   26 ar
  44   25   30 ar
  45   26   27 ar
  46   27   28 ar
  47   27   50 1
  48   28   29 ar
  49   29   30 ar
  50   29   31 1
  51   30   33 1
  52   31   32 1
  53   31   51 1
  54   32   33 2
  55   32   52 1
  56   33   53 1

#	End of record

