#	Name: ASD03090404
#	Creating user name:	WinNT
#	Creation time:	15. 06. 2019 20:28

#	Modifying user name:	WinNT
#	Modification time:	15. 06. 2019 20:28

#	Program:	/corina/corina34_cracker 3.40 0067  02.08.2006

@<TRIPOS>MOLECULE
ASD03090404
  37   39    0    0    0
SMALL
NO_CHARGES


@<TRIPOS>ATOM
   1 C1            -0.0186     1.5023     0.0155 C.2     
   2 C2             0.0014    -0.0045     0.0124 C.3     
   3 O3             1.0237     2.1227     0.0094 O.2     
   4 N4            -1.1946     2.1607     0.0195 N.am    
   5 C5            -1.2153     3.5571     0.1329 C.ar    
   6 C6            -2.1836     4.2939    -0.5360 C.ar    
   7 C7            -2.2037     5.6700    -0.4234 C.ar    
   8 C8            -1.2567     6.3163     0.3575 C.ar    
   9 C9            -0.2887     5.5808     1.0257 C.ar    
  10 C10           -0.2712     4.2041     0.9189 C.ar    
  11 O11           -1.2768     7.6714     0.4676 O.3     
  12 C12           -0.2720     8.2707     1.2881 C.3     
  13 N13            5.3309    -1.8124     0.2446 N.pl3   
  14 C14            5.5002    -1.8690     1.6012 C.2     
  15 C15            4.3722    -1.4853     2.2195 C.2     
  16 C16            3.4012    -1.1561     1.1733 C.ar    
  17 C17            2.0788    -0.7077     1.1828 C.ar    
  18 C18            1.4287    -0.4880     0.0014 C.ar    
  19 C19            2.0722    -0.7070    -1.2091 C.ar    
  20 C20            3.3762    -1.1497    -1.2415 C.ar    
  21 C21            4.0575    -1.3800    -0.0505 C.ar    
  22 H22           -0.5013    -0.3764     0.9053 H       
  23 H23           -0.5139    -0.3729    -0.8747 H       
  24 H24           -2.0266     1.6678    -0.0562 H       
  25 H25           -2.9205     3.7909    -1.1445 H       
  26 H26           -2.9568     6.2433    -0.9436 H       
  27 H27            0.4487     6.0846     1.6328 H       
  28 H28            0.4797     3.6313     1.4427 H       
  29 H29           -0.3614     7.8927     2.3065 H       
  30 H30            0.7138     8.0235     0.8941 H       
  31 H31           -0.4018     9.3529     1.2894 H       
  32 H32            6.0085    -2.0393    -0.4114 H       
  33 H33            6.4070    -2.1771     2.1006 H       
  34 H34            4.2111    -1.4299     3.2860 H       
  35 H35            1.5715    -0.5360     2.1207 H       
  36 H36            1.5450    -0.5288    -2.1347 H       
  37 H37            3.8680    -1.3175    -2.1882 H       
@<TRIPOS>BOND
   1    1    2 1
   2    1    3 2
   3    1    4 am
   4    2   18 1
   5    2   22 1
   6    2   23 1
   7    4    5 1
   8    4   24 1
   9    5    6 ar
  10    5   10 ar
  11    6    7 ar
  12    6   25 1
  13    7    8 ar
  14    7   26 1
  15    8    9 ar
  16    8   11 1
  17    9   10 ar
  18    9   27 1
  19   10   28 1
  20   11   12 1
  21   12   29 1
  22   12   30 1
  23   12   31 1
  24   13   14 1
  25   13   21 1
  26   13   32 1
  27   14   15 2
  28   14   33 1
  29   15   16 1
  30   15   34 1
  31   16   17 ar
  32   16   21 ar
  33   17   18 ar
  34   17   35 1
  35   18   19 ar
  36   19   20 ar
  37   19   36 1
  38   20   21 ar
  39   20   37 1

#	End of record

