#	Name: ASD03330216
#	Creating user name:	WinNT
#	Creation time:	15. 06. 2019 20:36

#	Modifying user name:	WinNT
#	Modification time:	15. 06. 2019 20:36

#	Program:	/corina/corina34_cracker 3.40 0067  02.08.2006

@<TRIPOS>MOLECULE
ASD03330216
  54   56    0    0    0
SMALL
NO_CHARGES


@<TRIPOS>ATOM
   1 C1            -0.6679     0.5743     0.2354 C.3     
   2 N2            -0.5955    -0.8809     0.0425 N.3     
   3 C3            -0.0236    -1.2154    -1.2742 C.3     
   4 C4             1.2513    -0.4295    -1.4416 C.2     
   5 N5             1.5878     0.6352    -0.6673 N.pl3   
   6 C6             0.7444     1.1450     0.4177 C.3     
   7 C7             2.2552    -0.6100    -2.3357 C.2     
   8 N8             3.1908     0.3379    -2.0991 N.2     
   9 C9             2.7948     1.0890    -1.0959 C.2     
  10 C10            3.5379     2.2360    -0.5291 C.ar    
  11 C11            4.6000     2.7998    -1.2353 C.ar    
  12 C12            5.2901     3.8713    -0.7001 C.ar    
  13 C13            4.9278     4.3835     0.5352 C.ar    
  14 C14            3.8748     3.8271     1.2388 C.ar    
  15 C15            3.1749     2.7614     0.7116 C.ar    
  16 C16            2.3160    -1.6512    -3.3768 C.2     
  17 O17            1.4071    -2.4513    -3.4904 O.2     
  18 O18            5.7337    -2.2069    -5.3236 O.2     
  19 C19            4.8781    -3.0227    -5.5944 C.2     
  20 C20            3.4391    -2.7520    -5.2380 C.3     
  21 N21            3.3787    -1.7169    -4.2031 N.am    
  22 C22            2.6869    -2.2741    -6.4818 C.3     
  23 C23            2.7488    -3.3557    -7.5621 C.3     
  24 C24            1.2263    -1.9978    -6.1197 C.3     
  25 C25            3.3336    -0.9909    -7.0072 C.3     
  26 N26            5.2143    -4.1715    -6.2139 N.am    
  27 C27            6.5982    -4.3970    -6.6384 C.3     
  28 F28            6.3195     4.4194    -1.3821 F       
  29 H29           -1.1342     1.0327    -0.6367 H       
  30 H30           -1.2643     0.7932     1.1211 H       
  31 H31           -0.0721    -1.3186     0.7859 H       
  32 H32            0.1927    -2.2827    -1.3215 H       
  33 H33           -0.7283    -0.9464    -2.0611 H       
  34 H34            0.7094     2.2336     0.3757 H       
  35 H35            1.1487     0.8263     1.3785 H       
  36 H36            4.8830     2.4001    -2.1979 H       
  37 H37            5.4698     5.2203     0.9505 H       
  38 H38            3.5970     4.2307     2.2012 H       
  39 H39            2.3531     2.3285     1.2626 H       
  40 H40            2.9790    -3.6667    -4.8643 H       
  41 H41            4.1036    -1.0787    -4.1125 H       
  42 H42            2.2740    -4.2650    -7.1934 H       
  43 H43            2.2264    -3.0090    -8.4537 H       
  44 H44            3.7899    -3.5638    -7.8088 H       
  45 H45            1.1823    -1.2272    -5.3500 H       
  46 H46            0.6905    -1.6574    -7.0057 H       
  47 H47            0.7656    -2.9120    -5.7453 H       
  48 H48            4.3742    -1.1877    -7.2652 H       
  49 H49            2.7978    -0.6505    -7.8933 H       
  50 H50            3.2896    -0.2203    -6.2375 H       
  51 H51            4.5399    -4.8490    -6.3787 H       
  52 H52            6.6769    -5.3730    -7.1172 H       
  53 H53            6.8925    -3.6209    -7.3449 H       
  54 H54            7.2548    -4.3648    -5.7689 H       
@<TRIPOS>BOND
   1    1    2 1
   2    1    6 1
   3    1   29 1
   4    1   30 1
   5    2    3 1
   6    2   31 1
   7    3    4 1
   8    3   32 1
   9    3   33 1
  10    4    5 1
  11    4    7 2
  12    5    6 1
  13    5    9 1
  14    6   34 1
  15    6   35 1
  16    7    8 1
  17    7   16 1
  18    8    9 2
  19    9   10 1
  20   10   11 ar
  21   10   15 ar
  22   11   12 ar
  23   11   36 1
  24   12   13 ar
  25   12   28 1
  26   13   14 ar
  27   13   37 1
  28   14   15 ar
  29   14   38 1
  30   15   39 1
  31   16   17 2
  32   16   21 am
  33   18   19 2
  34   19   26 am
  35   19   20 1
  36   20   21 1
  37   20   22 1
  38   20   40 1
  39   21   41 1
  40   22   23 1
  41   22   24 1
  42   22   25 1
  43   23   42 1
  44   23   43 1
  45   23   44 1
  46   24   45 1
  47   24   46 1
  48   24   47 1
  49   25   48 1
  50   25   49 1
  51   25   50 1
  52   26   27 1
  53   26   51 1
  54   27   52 1
  55   27   53 1
  56   27   54 1

#	End of record

