#	Name: ASD01911589
#	Creating user name:	WinNT
#	Creation time:	15. 06. 2019 19:58

#	Modifying user name:	WinNT
#	Modification time:	15. 06. 2019 19:58

#	Program:	/corina/corina34_cracker 3.40 0067  02.08.2006

@<TRIPOS>MOLECULE
ASD01911589
  37   39    0    0    0
SMALL
NO_CHARGES


@<TRIPOS>ATOM
   1 N1            -0.0171     1.3436     0.0001 N.am    
   2 C2             0.0021    -0.0041     0.0020 C.2     
   3 C3            -1.2508    -0.7543     0.1205 C.2     
   4 C4            -1.3862    -2.1135     0.0310 C.2     
   5 S5            -2.8471    -0.0659     0.4110 S.3     
   6 C6            -3.5481    -1.6813     0.3771 C.2     
   7 N7            -2.6014    -2.5626     0.1691 N.2     
   8 C8            -4.9363    -1.9846     0.5542 C.1     
   9 C9            -6.0745    -2.2333     0.6993 C.1     
  10 C10           -7.4627    -2.5366     0.8764 C.ar    
  11 C11           -7.9039    -3.8625     0.8289 C.ar    
  12 C12           -9.2423    -4.1466     1.0008 C.ar    
  13 C13          -10.1481    -3.1233     1.2194 C.ar    
  14 C14           -9.7191    -1.8084     1.2677 C.ar    
  15 C15           -8.3831    -1.5088     1.1034 C.ar    
  16 O16            1.0602    -0.5978    -0.0947 O.2     
  17 C17            1.1685     2.2197    -0.0146 C.3     
  18 C18          -11.6091    -3.4425     1.4052 C.3     
  19 C19           -1.2238     2.1834     0.0059 C.3     
  20 C20           -0.7585     3.6544    -0.0272 C.3     
  21 C21            0.6686     3.5532    -0.6241 C.3     
  22 H22           -0.5446    -2.7679    -0.1422 H       
  23 H23           -7.1983    -4.6621     0.6577 H       
  24 H24           -9.5846    -5.1703     0.9644 H       
  25 H25          -10.4319    -1.0152     1.4383 H       
  26 H26           -8.0499    -0.4822     1.1413 H       
  27 H27            1.5345     2.3798     0.9996 H       
  28 H28            1.9516     1.7878    -0.6377 H       
  29 H29          -11.8137    -3.6052     2.4634 H       
  30 H30          -12.2119    -2.6099     1.0425 H       
  31 H31          -11.8585    -4.3432     0.8443 H       
  32 H32           -1.8306     1.9666    -0.8733 H       
  33 H33           -1.8006     1.9973     0.9119 H       
  34 H34           -1.4036     4.2485    -0.6745 H       
  35 H35           -0.7297     4.0725     0.9790 H       
  36 H36            1.2889     4.3878    -0.2973 H       
  37 H37            0.6339     3.4968    -1.7121 H       
@<TRIPOS>BOND
   1    1    2 am
   2    1   19 1
   3    1   17 1
   4    2    3 1
   5    2   16 2
   6    3    4 2
   7    3    5 1
   8    4    7 1
   9    4   22 1
  10    5    6 1
  11    6    7 2
  12    6    8 1
  13    8    9 3
  14    9   10 1
  15   10   11 ar
  16   10   15 ar
  17   11   12 ar
  18   11   23 1
  19   12   13 ar
  20   12   24 1
  21   13   14 ar
  22   13   18 1
  23   14   15 ar
  24   14   25 1
  25   15   26 1
  26   17   21 1
  27   17   27 1
  28   17   28 1
  29   18   29 1
  30   18   30 1
  31   18   31 1
  32   19   20 1
  33   19   32 1
  34   19   33 1
  35   20   21 1
  36   20   34 1
  37   20   35 1
  38   21   36 1
  39   21   37 1

#	End of record

