#	Name: ASD08070541
#	Creating user name:	WinNT
#	Creation time:	15. 06. 2019 21:15

#	Modifying user name:	WinNT
#	Modification time:	15. 06. 2019 21:15

#	Program:	/corina/corina34_cracker 3.40 0067  02.08.2006

@<TRIPOS>MOLECULE
ASD08070541
  45   45    0    0    0
SMALL
NO_CHARGES


@<TRIPOS>ATOM
   1 C1            -0.0168     1.3872     0.0097 C.ar    
   2 C2             0.0021    -0.0041     0.0020 C.ar    
   3 C3             1.2095    -0.6870    -0.0132 C.ar    
   4 C4             2.4023     0.0149    -0.0208 C.ar    
   5 C5             2.3849     1.4181    -0.0131 C.ar    
   6 C6             1.1623     2.0962     0.0022 C.ar    
   7 C7             3.6495     2.1734    -0.0206 C.2     
   8 O8             4.7115     1.5810    -0.0335 O.2     
   9 N9             3.6295     3.5210    -0.0131 N.am    
  10 C10            4.8873     4.2722    -0.0206 C.3     
  11 C11            4.6604     5.6528     0.5986 C.3     
  12 C12            5.3691     4.4311    -1.4396 C.2     
  13 C13            4.2918     5.4952     2.0751 C.3     
  14 C14            5.4782     4.9003     2.8362 C.3     
  15 O15            6.5107     5.0908    -1.6909 O.3     
  16 C16            6.9137     5.2051    -3.0812 C.3     
  17 O17            3.5840    -0.6512    -0.0351 O.3     
  18 O18           -1.1655    -0.6958     0.0099 O.3     
  19 C19           -2.3725     0.0690     0.0259 C.3     
  20 C20           -3.5754    -0.8766     0.0328 C.3     
  21 O21            4.7277     3.9647    -2.3512 O.2     
  22 C22            3.9436     6.8643     2.6628 C.3     
  23 H23           -0.9604     1.9125     0.0170 H       
  24 H24            1.2187    -1.7670    -0.0187 H       
  25 H25            1.1434     3.1761     0.0078 H       
  26 H26            2.7825     3.9935    -0.0028 H       
  27 H27            5.6362     3.7326     0.5591 H       
  28 H28            5.5722     6.2438     0.5128 H       
  29 H29            3.8495     6.1577     0.0735 H       
  30 H30            3.4320     4.8315     2.1661 H       
  31 H31            5.2156     4.7881     3.8882 H       
  32 H32            5.7263     3.9250     2.4176 H       
  33 H33            6.3380     5.5641     2.7452 H       
  34 H34            7.0520     4.2094    -3.5025 H       
  35 H35            6.1414     5.7325    -3.6411 H       
  36 H36            7.8502     5.7593    -3.1436 H       
  37 H37            3.9184    -0.8399    -0.9227 H       
  38 H38           -2.3956     0.6927     0.9196 H       
  39 H39           -2.4133     0.7023    -0.8603 H       
  40 H40           -3.5523    -1.5003    -0.8608 H       
  41 H41           -3.5346    -1.5098     0.9190 H       
  42 H42           -4.4960    -0.2932     0.0451 H       
  43 H43            3.0984     7.2881     2.1205 H       
  44 H44            3.6810     6.7520     3.7147 H       
  45 H45            4.8034     7.5281     2.5717 H       
@<TRIPOS>BOND
   1    1    2 ar
   2    1    6 ar
   3    1   23 1
   4    2    3 ar
   5    2   18 1
   6    3    4 ar
   7    3   24 1
   8    4    5 ar
   9    4   17 1
  10    5    6 ar
  11    5    7 1
  12    6   25 1
  13    7    8 2
  14    7    9 am
  15    9   10 1
  16    9   26 1
  17   10   11 1
  18   10   12 1
  19   10   27 1
  20   11   13 1
  21   11   28 1
  22   11   29 1
  23   12   15 1
  24   12   21 2
  25   13   14 1
  26   13   22 1
  27   13   30 1
  28   14   31 1
  29   14   32 1
  30   14   33 1
  31   15   16 1
  32   16   34 1
  33   16   35 1
  34   16   36 1
  35   17   37 1
  36   18   19 1
  37   19   20 1
  38   19   38 1
  39   19   39 1
  40   20   40 1
  41   20   41 1
  42   20   42 1
  43   22   43 1
  44   22   44 1
  45   22   45 1

#	End of record

