#	Name: ASD01816014
#	Creating user name:	WinNT
#	Creation time:	15. 06. 2019 19:34

#	Modifying user name:	WinNT
#	Modification time:	15. 06. 2019 19:34

#	Program:	/corina/corina34_cracker 3.40 0067  02.08.2006

@<TRIPOS>MOLECULE
ASD01816014
  41   45    0    0    0
SMALL
NO_CHARGES


@<TRIPOS>ATOM
   1 C1            -0.0167     1.3813     0.0096 C.ar    
   2 C2             0.0021    -0.0041     0.0020 C.ar    
   3 C3             1.1985    -0.6908    -0.0127 C.ar    
   4 C4             2.4014     0.0060    -0.0204 C.ar    
   5 C5             2.3791     1.4105    -0.0132 C.ar    
   6 C6             1.1663     2.0916     0.0022 C.ar    
   7 N7             3.6065    -0.6779    -0.0347 N.pl3   
   8 C8             4.7994    -0.0572    -0.0428 C.2     
   9 C9             4.9005     1.3118    -0.0368 C.2     
  10 C10            3.6669     2.1304    -0.0217 C.2     
  11 C11            5.9969     2.2756    -0.0415 C.2     
  12 N12            5.4232     3.4981    -0.0300 N.am    
  13 N13            4.0311     3.3807    -0.0183 N.2     
  14 C14            6.1240     4.7109    -0.0297 C.ar    
  15 O15            7.1914     2.0266    -0.0527 O.2     
  16 C16            3.5811    -2.0769    -0.0405 C.ar    
  17 C17            6.5524     5.2674    -1.2275 C.ar    
  18 C18            7.2433     6.4634    -1.2241 C.ar    
  19 C19            7.5092     7.1078    -0.0297 C.ar    
  20 C20            7.0848     6.5579     1.1659 C.ar    
  21 C21            6.3875     5.3635     1.1698 C.ar    
  22 F22            5.9727     4.8260     2.3379 F       
  23 C23            3.5797    -2.7787     1.1594 C.ar    
  24 C24            3.5513    -2.7674    -1.2449 C.ar    
  25 C25            3.5257    -4.1485    -1.2473 C.ar    
  26 C26            3.5297    -4.8440    -0.0523 C.ar    
  27 C27            3.5540    -4.1600     1.1496 C.ar    
  28 Br28           3.6135    -1.8440     2.8029 Br      
  29 H29           -0.9602     1.9068     0.0170 H       
  30 H30           -0.9288    -0.5516     0.0080 H       
  31 H31            1.2005    -1.7708    -0.0178 H       
  32 H32            1.1506     3.1715     0.0074 H       
  33 H33            5.7013    -0.6512    -0.0538 H       
  34 H34            6.3459     4.7653    -2.1610 H       
  35 H35            7.5768     6.8960    -2.1558 H       
  36 H36            8.0500     8.0427    -0.0307 H       
  37 H37            7.2941     7.0637     2.0969 H       
  38 H38            3.5478    -2.2251    -2.1789 H       
  39 H39            3.5023    -4.6858    -2.1839 H       
  40 H40            3.5097    -5.9238    -0.0573 H       
  41 H41            3.5570    -4.7063     2.0812 H       
@<TRIPOS>BOND
   1    1    2 ar
   2    1    6 ar
   3    1   29 1
   4    2    3 ar
   5    2   30 1
   6    3    4 ar
   7    3   31 1
   8    4    5 ar
   9    4    7 1
  10    5    6 ar
  11    5   10 1
  12    6   32 1
  13    7    8 1
  14    7   16 1
  15    8    9 2
  16    8   33 1
  17    9   10 1
  18    9   11 1
  19   10   13 2
  20   11   12 am
  21   11   15 2
  22   12   13 1
  23   12   14 1
  24   14   17 ar
  25   14   21 ar
  26   16   23 ar
  27   16   24 ar
  28   17   18 ar
  29   17   34 1
  30   18   19 ar
  31   18   35 1
  32   19   20 ar
  33   19   36 1
  34   20   21 ar
  35   20   37 1
  36   21   22 1
  37   23   28 1
  38   23   27 ar
  39   24   25 ar
  40   24   38 1
  41   25   26 ar
  42   25   39 1
  43   26   27 ar
  44   26   40 1
  45   27   41 1

#	End of record

