#	Name: ASD01917892
#	Creating user name:	WinNT
#	Creation time:	15. 06. 2019 20:10

#	Modifying user name:	WinNT
#	Modification time:	15. 06. 2019 20:10

#	Program:	/corina/corina34_cracker 3.40 0067  02.08.2006

@<TRIPOS>MOLECULE
ASD01917892
  46   50    0    0    0
SMALL
NO_CHARGES


@<TRIPOS>ATOM
   1 C1            -0.0147     1.3275     0.0004 C.2     
   2 C2            -0.0054    -0.0187     0.0029 C.2     
   3 C3            -1.2755    -0.8553     0.0144 C.3     
   4 C4            -2.4421     0.0109     0.4952 C.3     
   5 N5            -2.4111     1.2980    -0.2158 N.am    
   6 C6            -1.2589     2.1855     0.0204 C.3     
   7 C7            -3.4039     1.6536    -1.0549 C.2     
   8 O8            -4.2938     0.8652    -1.3132 O.2     
   9 S9             1.6466     1.9021    -0.0222 S.3     
  10 C10            2.2121     0.2892    -0.0216 C.2     
  11 N11            1.2188    -0.5284    -0.0071 N.2     
  12 C12            3.6634    -0.1164    -0.0364 C.3     
  13 O13            4.1069    -0.2500    -1.3883 O.3     
  14 C14            5.4024    -0.6133    -1.5795 C.ar    
  15 C15            5.8998    -0.7614    -2.8661 C.ar    
  16 C16            7.2170    -1.1309    -3.0579 C.ar    
  17 C17            8.0395    -1.3530    -1.9689 C.ar    
  18 C18            7.5461    -1.2064    -0.6857 C.ar    
  19 C19            6.2313    -0.8311    -0.4886 C.ar    
  20 C20           -3.4116     2.9935    -1.6578 C.2     
  21 C21           -2.9901     4.1533    -1.0748 C.2     
  22 N22           -3.1498     5.1840    -1.9376 N.pl3   
  23 C23           -3.6854     4.7357    -3.1261 C.ar    
  24 C24           -3.8702     3.3476    -3.0133 C.ar    
  25 C25           -4.0387     5.3665    -4.3159 C.ar    
  26 C26           -4.5637     4.5945    -5.3368 C.ar    
  27 C27           -4.7227     3.2301    -5.1520 C.ar    
  28 N28           -4.3720     2.6493    -4.0240 N.ar    
  29 H29           -1.4818    -1.2182    -0.9925 H       
  30 H30           -1.1481    -1.7019     0.6889 H       
  31 H31           -3.3835    -0.4977     0.2872 H       
  32 H32           -2.3495     0.1844     1.5673 H       
  33 H33           -1.3592     2.6725     0.9904 H       
  34 H34           -1.2021     2.9363    -0.7677 H       
  35 H35            4.2586     0.6450     0.4677 H       
  36 H36            3.7797    -1.0693     0.4799 H       
  37 H37            5.2576    -0.5884    -3.7171 H       
  38 H38            7.6046    -1.2467    -4.0593 H       
  39 H39            9.0690    -1.6417    -2.1210 H       
  40 H40            8.1904    -1.3811     0.1633 H       
  41 H41            5.8463    -0.7168     0.5140 H       
  42 H42           -2.5899     4.2362    -0.0751 H       
  43 H43           -2.9203     6.1069    -1.7466 H       
  44 H44           -3.9067     6.4313    -4.4387 H       
  45 H45           -4.8484     5.0525    -6.2725 H       
  46 H46           -5.1333     2.6311    -5.9515 H       
@<TRIPOS>BOND
   1    1    2 2
   2    1    9 1
   3    1    6 1
   4    2    3 1
   5    2   11 1
   6    3    4 1
   7    3   29 1
   8    3   30 1
   9    4    5 1
  10    4   31 1
  11    4   32 1
  12    5    6 1
  13    5    7 am
  14    6   33 1
  15    6   34 1
  16    7    8 2
  17    7   20 1
  18    9   10 1
  19   10   11 2
  20   10   12 1
  21   12   13 1
  22   12   35 1
  23   12   36 1
  24   13   14 1
  25   14   15 ar
  26   14   19 ar
  27   15   16 ar
  28   15   37 1
  29   16   17 ar
  30   16   38 1
  31   17   18 ar
  32   17   39 1
  33   18   19 ar
  34   18   40 1
  35   19   41 1
  36   20   21 2
  37   20   24 1
  38   21   22 1
  39   21   42 1
  40   22   23 1
  41   22   43 1
  42   23   25 ar
  43   23   24 ar
  44   24   28 ar
  45   25   26 ar
  46   25   44 1
  47   26   27 ar
  48   26   45 1
  49   27   28 ar
  50   27   46 1

#	End of record

