#	Name: ASD06170014
#	Creating user name:	WinNT
#	Creation time:	15. 06. 2019 21:05

#	Modifying user name:	WinNT
#	Modification time:	15. 06. 2019 21:05

#	Program:	/corina/corina34_cracker 3.40 0067  02.08.2006

@<TRIPOS>MOLECULE
ASD06170014
  72   77    0    0    0
SMALL
NO_CHARGES


@<TRIPOS>ATOM
   1 N1            -0.7911     0.7510    -0.1581 N.pl3   
   2 N2            -0.1867    -0.4887    -0.3855 N.am    
   3 C3             1.0616    -0.4668     0.1232 C.2     
   4 C4             1.2614     0.8662     0.7084 C.2     
   5 C5             0.0763     1.5706     0.5002 C.2     
   6 C6             2.4684     1.3581     1.3792 C.2     
   7 O7             2.4807     2.4718     1.8702 O.2     
   8 N8             3.5644     0.5772     1.4523 N.am    
   9 C9             0.1979     5.3193     0.7449 C.ar    
  10 C10            0.4800     4.0354     0.3221 C.ar    
  11 C11           -0.1918     2.9617     0.9190 C.ar    
  12 C12           -1.1254     3.2438     1.9238 C.ar    
  13 C13           -1.3446     4.5590     2.2831 C.ar    
  14 N14           -0.6892     5.5401     1.6949 N.ar    
  15 C15           -0.8087    -1.6271    -1.0663 C.3     
  16 C16            0.2326    -2.7289    -1.2728 C.3     
  17 C17           -1.9412    -2.1575    -0.2255 C.ar    
  18 C18           -3.1294    -2.5330    -0.8240 C.ar    
  19 C19           -4.1683    -3.0195    -0.0527 C.ar    
  20 C20           -4.0189    -3.1310     1.3170 C.ar    
  21 C21           -2.8304    -2.7564     1.9154 C.ar    
  22 C22           -1.7900    -2.2739     1.1436 C.ar    
  23 O23            1.8687    -1.3774     0.1024 O.2     
  24 C24           -2.1487     1.1160    -0.5705 C.3     
  25 C25            4.6673     0.9879     2.2110 C.ar    
  26 C26            4.9518     2.3406     2.3470 C.ar    
  27 C27            6.0407     2.7450     3.0961 C.ar    
  28 C28            6.8498     1.7978     3.7125 C.ar    
  29 C29            6.5650     0.4478     3.5756 C.ar    
  30 C30            5.4732     0.0433     2.8321 C.ar    
  31 O31            7.9213     2.1953     4.4497 O.3     
  32 N32            7.1937     3.7618     8.1947 N.ar    
  33 C33            6.1936     3.4452     7.4060 C.ar    
  34 C34            6.3999     2.9149     6.1389 C.ar    
  35 C35            7.6901     2.7107     5.6819 C.ar    
  36 C36            8.7594     3.0557     6.5395 C.ar    
  37 C37           10.0938     2.8779     6.1459 C.ar    
  38 C38           11.1015     3.2202     6.9942 C.ar    
  39 C39           10.8238     3.7486     8.2582 C.ar    
  40 C40            9.5246     3.9350     8.6735 C.ar    
  41 C41            8.4664     3.5905     7.8177 C.ar    
  42 O42           11.8476     4.0814     9.0864 O.3     
  43 C43           13.1732     3.8642     8.5990 C.3     
  44 F44            6.3188     4.0604     3.2288 F       
  45 H45            3.5893    -0.2693     0.9793 H       
  46 H46            0.7140     6.1540     0.2939 H       
  47 H47            1.2076     3.8621    -0.4570 H       
  48 H48           -1.6659     2.4452     2.4099 H       
  49 H49           -2.0626     4.7870     3.0569 H       
  50 H50           -1.1941    -1.3055    -2.0338 H       
  51 H51            0.6181    -3.0505    -0.3053 H       
  52 H52           -0.2302    -3.5759    -1.7793 H       
  53 H53            1.0518    -2.3452    -1.8810 H       
  54 H54           -3.2461    -2.4459    -1.8941 H       
  55 H55           -5.0968    -3.3122    -0.5202 H       
  56 H56           -4.8308    -3.5104     1.9197 H       
  57 H57           -2.7138    -2.8431     2.9856 H       
  58 H58           -0.8601    -1.9847     1.6107 H       
  59 H59           -2.8583     0.7976     0.1932 H       
  60 H60           -2.2117     2.1967    -0.6971 H       
  61 H61           -2.3861     0.6251    -1.5143 H       
  62 H62            4.3228     3.0759     1.8675 H       
  63 H63            7.1945    -0.2878     4.0542 H       
  64 H64            5.2491    -1.0082     2.7303 H       
  65 H65            5.1824     3.6002     7.7521 H       
  66 H66            5.5567     2.6637     5.5125 H       
  67 H67           10.3212     2.4700     5.1721 H       
  68 H68           12.1277     3.0818     6.6873 H       
  69 H69            9.3207     4.3439     9.6521 H       
  70 H70           13.8939     4.1712     9.3569 H       
  71 H71           13.3094     2.8061     8.3756 H       
  72 H72           13.3275     4.4497     7.6926 H       
@<TRIPOS>BOND
   1    1    2 1
   2    1    5 1
   3    1   24 1
   4    2    3 am
   5    2   15 1
   6    3    4 1
   7    3   23 2
   8    4    5 2
   9    4    6 1
  10    5   11 1
  11    6    7 2
  12    6    8 am
  13    8   25 1
  14    8   45 1
  15    9   10 ar
  16    9   14 ar
  17    9   46 1
  18   10   11 ar
  19   10   47 1
  20   11   12 ar
  21   12   13 ar
  22   12   48 1
  23   13   14 ar
  24   13   49 1
  25   15   16 1
  26   15   17 1
  27   15   50 1
  28   16   51 1
  29   16   52 1
  30   16   53 1
  31   17   18 ar
  32   17   22 ar
  33   18   19 ar
  34   18   54 1
  35   19   20 ar
  36   19   55 1
  37   20   21 ar
  38   20   56 1
  39   21   22 ar
  40   21   57 1
  41   22   58 1
  42   24   59 1
  43   24   60 1
  44   24   61 1
  45   25   26 ar
  46   25   30 ar
  47   26   27 ar
  48   26   62 1
  49   27   28 ar
  50   27   44 1
  51   28   29 ar
  52   28   31 1
  53   29   30 ar
  54   29   63 1
  55   30   64 1
  56   31   35 1
  57   32   33 ar
  58   32   41 ar
  59   33   34 ar
  60   33   65 1
  61   34   35 ar
  62   34   66 1
  63   35   36 ar
  64   36   37 ar
  65   36   41 ar
  66   37   38 ar
  67   37   67 1
  68   38   39 ar
  69   38   68 1
  70   39   40 ar
  71   39   42 1
  72   40   41 ar
  73   40   69 1
  74   42   43 1
  75   43   70 1
  76   43   71 1
  77   43   72 1

#	End of record

