#	Name: ASD04882156
#	Creating user name:	WinNT
#	Creation time:	15. 06. 2019 20:54

#	Modifying user name:	WinNT
#	Modification time:	15. 06. 2019 20:54

#	Program:	/corina/corina34_cracker 3.40 0067  02.08.2006

@<TRIPOS>MOLECULE
ASD04882156
  74   78    0    0    0
SMALL
NO_CHARGES


@<TRIPOS>ATOM
   1 C1             0.1693     1.1599    -0.9399 C.2     
   2 C2             0.1007    -0.1097    -0.4419 C.2     
   3 C3            -1.0734    -0.9874    -0.4786 C.2     
   4 N4            -1.0067    -2.2246     0.0519 N.am    
   5 C5            -2.1586    -3.0186     0.1244 C.ar    
   6 C6            -2.0624    -4.4055    -0.0200 C.ar    
   7 C7            -3.2047    -5.1946     0.0517 C.ar    
   8 C8            -4.4348    -4.6131     0.2649 C.ar    
   9 C9            -4.5382    -3.2268     0.4097 C.ar    
  10 C10           -3.3905    -2.4318     0.3446 C.ar    
  11 N11           -0.8208    -4.9975    -0.2366 N.3     
  12 C12           -0.2710    -4.6057    -1.5419 C.3     
  13 C13           -0.9076    -6.4600    -0.1224 C.3     
  14 C14            0.4882    -7.0657    -0.2876 C.3     
  15 N15            1.0380    -6.6739    -1.5930 N.3     
  16 C16            1.1248    -5.2114    -1.7071 C.3     
  17 C17            2.2834    -7.2678    -1.8102 C.ar    
  18 C18            2.4719    -8.1122    -2.8967 C.ar    
  19 C19            3.3381    -7.0107    -0.9431 C.ar    
  20 C20            4.5680    -7.5994    -1.1607 C.ar    
  21 C21            4.7508    -8.4439    -2.2407 C.ar    
  22 C22            3.7048    -8.6978    -3.1085 C.ar    
  23 C23           -5.8561    -2.6042     0.6376 C.2     
  24 N24           -6.9614    -3.3723     0.7061 N.am    
  25 O25           -5.9451    -1.3981     0.7635 O.2     
  26 O26           -2.1081    -0.5986    -0.9881 O.2     
  27 C27            1.3324    -8.3895    -3.8431 C.3     
  28 C28           -8.2702    -2.7540     0.9324 C.3     
  29 C29           -9.3317    -3.8232     0.9667 C.2     
  30 N30          -10.6216    -3.4861     1.1639 N.am    
  31 C31          -11.6535    -4.5255     1.1973 C.3     
  32 C32          -12.8627    -4.0416     2.0167 C.3     
  33 C33          -12.1705    -4.8029    -0.2294 C.3     
  34 C34          -13.6859    -5.0615    -0.0407 C.3     
  35 C35          -14.0723    -4.0418     1.0593 C.3     
  36 C36            1.4711     1.6216    -0.6902 C.2     
  37 C37            2.1318     0.6262    -0.0587 C.2     
  38 O38            1.3027    -0.4154     0.0891 O.3     
  39 O39           -9.0251    -4.9871     0.8170 O.2     
  40 H40           -0.6231     1.7021    -1.4344 H       
  41 H41           -0.1611    -2.5652     0.3834 H       
  42 H42           -3.1273    -6.2660    -0.0603 H       
  43 H43           -5.3204    -5.2289     0.3197 H       
  44 H44           -3.4673    -1.3603     0.4562 H       
  45 H45           -0.9224    -4.9716    -2.3355 H       
  46 H46           -0.2048    -3.5191    -1.5973 H       
  47 H47           -1.3055    -6.7254     0.8570 H       
  48 H48           -1.5663    -6.8470    -0.8999 H       
  49 H49            1.1397    -6.6998     0.5060 H       
  50 H50            0.4220    -8.1523    -0.2322 H       
  51 H51            1.5228    -4.9461    -2.6866 H       
  52 H52            1.7835    -4.8244    -0.9296 H       
  53 H53            3.1962    -6.3507    -0.1000 H       
  54 H54            5.3882    -7.4000    -0.4871 H       
  55 H55            5.7140    -8.9026    -2.4090 H       
  56 H56            3.8509    -9.3578    -3.9508 H       
  57 H57           -6.8904    -4.3345     0.6057 H       
  58 H58            1.3400    -7.6531    -4.6466 H       
  59 H59            1.4451    -9.3884    -4.2647 H       
  60 H60            0.3879    -8.3277    -3.3026 H       
  61 H61           -8.2607    -2.2208     1.8830 H       
  62 H62           -8.4857    -2.0539     0.1252 H       
  63 H63          -10.8667    -2.5552     1.2837 H       
  64 H64          -11.2488    -5.4391     1.6328 H       
  65 H65          -13.0454    -4.7209     2.8494 H       
  66 H66          -12.6818    -3.0334     2.3895 H       
  67 H67          -12.0084    -3.9355    -0.8693 H       
  68 H68          -11.6824    -5.6832    -0.6476 H       
  69 H69          -14.2302    -4.8593    -0.9632 H       
  70 H70          -13.8643    -6.0819     0.2986 H       
  71 H71          -14.9722    -4.3668     1.5816 H       
  72 H72          -14.2173    -3.0515     0.6276 H       
  73 H73            1.8700     2.5900    -0.9537 H       
  74 H74            3.1590     0.6643     0.2726 H       
@<TRIPOS>BOND
   1    1    2 2
   2    1   36 1
   3    1   40 1
   4    2    3 1
   5    2   38 1
   6    3    4 am
   7    3   26 2
   8    4    5 1
   9    4   41 1
  10    5    6 ar
  11    5   10 ar
  12    6    7 ar
  13    6   11 1
  14    7    8 ar
  15    7   42 1
  16    8    9 ar
  17    8   43 1
  18    9   10 ar
  19    9   23 1
  20   10   44 1
  21   11   12 1
  22   11   13 1
  23   12   16 1
  24   12   45 1
  25   12   46 1
  26   13   14 1
  27   13   47 1
  28   13   48 1
  29   14   15 1
  30   14   49 1
  31   14   50 1
  32   15   16 1
  33   15   17 1
  34   16   51 1
  35   16   52 1
  36   17   18 ar
  37   17   19 ar
  38   18   27 1
  39   18   22 ar
  40   19   20 ar
  41   19   53 1
  42   20   21 ar
  43   20   54 1
  44   21   22 ar
  45   21   55 1
  46   22   56 1
  47   23   24 am
  48   23   25 2
  49   24   28 1
  50   24   57 1
  51   27   58 1
  52   27   59 1
  53   27   60 1
  54   28   29 1
  55   28   61 1
  56   28   62 1
  57   29   30 am
  58   29   39 2
  59   30   31 1
  60   30   63 1
  61   31   32 1
  62   31   33 1
  63   31   64 1
  64   32   35 1
  65   32   65 1
  66   32   66 1
  67   33   34 1
  68   33   67 1
  69   33   68 1
  70   34   35 1
  71   34   69 1
  72   34   70 1
  73   35   71 1
  74   35   72 1
  75   36   37 2
  76   36   73 1
  77   37   38 1
  78   37   74 1

#	End of record

