#	Name: ASD03430131
#	Creating user name:	WinNT
#	Creation time:	15. 06. 2019 20:40

#	Modifying user name:	WinNT
#	Modification time:	15. 06. 2019 20:40

#	Program:	/corina/corina34_cracker 3.40 0067  02.08.2006

@<TRIPOS>MOLECULE
ASD03430131
  65   72    0    0    0
SMALL
NO_CHARGES


@<TRIPOS>ATOM
   1 C1             0.4931     1.1063    -0.6189 C.ar    
   2 C2             0.4566    -0.2632    -0.4755 C.ar    
   3 C3             1.6213    -0.9663    -0.2502 C.ar    
   4 C4             2.8396    -0.2985    -0.1549 C.ar    
   5 C5             2.8687     1.0823    -0.3092 C.ar    
   6 C6             1.6987     1.7939    -0.5461 C.ar    
   7 O7             3.8582    -1.1679     0.1015 O.3     
   8 C8             1.9186    -2.4311    -0.0786 C.3     
   9 C9             3.4430    -2.5028    -0.2454 C.3     
  10 C10            0.6014    -3.9997     0.9804 C.ar    
  11 C11            1.4766    -2.9543     1.2554 C.ar    
  12 C12            1.2074    -3.2793    -1.0938 C.2     
  13 N13            0.4646    -4.1648    -0.4004 N.am    
  14 O14            1.2863    -3.1860    -2.3005 O.2     
  15 C15            1.7659    -2.6047     2.5668 C.ar    
  16 C16            1.1763    -3.3069     3.6180 C.ar    
  17 C17            0.3085    -4.3453     3.3456 C.ar    
  18 C18            0.0208    -4.6926     2.0408 C.ar    
  19 C19            2.7004    -1.4873     2.8501 C.ar    
  20 C20           -0.5942     2.1367    -0.8531 C.3     
  21 C21            0.1347     3.4560    -0.5046 C.3     
  22 O22            1.5146     3.1292    -0.7415 O.3     
  23 C23           -0.3866    -5.1823    -1.0219 C.3     
  24 C24           -1.7890    -4.6105    -1.2395 C.3     
  25 C25           -2.6928    -5.6737    -1.8933 C.3     
  26 C26           -3.8620    -5.8447    -0.8932 C.3     
  27 C27           -3.7955    -4.5228    -0.0867 C.3     
  28 O28           -2.3788    -4.2678     0.0258 O.3     
  29 C29            2.4094    -0.1998     2.3881 C.ar    
  30 C30            3.2584     0.8393     2.6395 C.ar    
  31 C31            4.4288     0.6280     3.3625 C.ar    
  32 C32            4.7320    -0.6636     3.8331 C.ar    
  33 C33            3.8590    -1.7206     3.5781 C.ar    
  34 N34            5.4537     1.4558     3.7631 N.pl3   
  35 C35            6.3850     0.7389     4.4638 C.2     
  36 C36            6.0091    -0.5473     4.5420 C.2     
  37 C37            5.5353     2.8909     3.4804 C.3     
  38 H38           -0.4856    -0.7870    -0.5392 H       
  39 H39            3.8101     1.6077    -0.2443 H       
  40 H40            3.7090    -2.7352    -1.2765 H       
  41 H41            3.8735    -3.2325     0.4404 H       
  42 H42            1.3980    -3.0395     4.6406 H       
  43 H43           -0.1482    -4.8900     4.1587 H       
  44 H44           -0.6595    -5.5071     1.8405 H       
  45 H45           -0.9165     2.1330    -1.8943 H       
  46 H46           -1.4390     1.9702    -0.1847 H       
  47 H47           -0.1898     4.2620    -1.1629 H       
  48 H48           -0.0255     3.7213     0.5404 H       
  49 H49            0.0391    -5.4755    -1.9815 H       
  50 H50           -0.4467    -6.0536    -0.3697 H       
  51 H51           -1.7344    -3.7278    -1.8767 H       
  52 H52           -3.0626    -5.3204    -2.8558 H       
  53 H53           -2.1523    -6.6127    -2.0126 H       
  54 H54           -4.8132    -5.9326    -1.4182 H       
  55 H55           -3.6964    -6.7049    -0.2445 H       
  56 H56           -4.2887    -3.7166    -0.6298 H       
  57 H57           -4.2417    -4.6518     0.8993 H       
  58 H58            1.5037    -0.0258     1.8261 H       
  59 H59            3.0214     1.8282     2.2759 H       
  60 H60            4.0862    -2.7136     3.9370 H       
  61 H61            7.2889     1.1475     4.8908 H       
  62 H62            6.5460    -1.3449     5.0340 H       
  63 H63            5.0522     3.4475     4.2834 H       
  64 H64            6.5816     3.1886     3.4104 H       
  65 H65            5.0330     3.1045     2.5369 H       
@<TRIPOS>BOND
   1    1    2 ar
   2    1    6 ar
   3    1   20 1
   4    2    3 ar
   5    2   38 1
   6    3    4 ar
   7    3    8 1
   8    4    5 ar
   9    4    7 1
  10    5    6 ar
  11    5   39 1
  12    6   22 1
  13    7    9 1
  14    8    9 1
  15    8   11 1
  16    8   12 1
  17    9   40 1
  18    9   41 1
  19   10   11 ar
  20   10   13 1
  21   10   18 ar
  22   11   15 ar
  23   12   13 am
  24   12   14 2
  25   13   23 1
  26   15   16 ar
  27   15   19 1
  28   16   17 ar
  29   16   42 1
  30   17   18 ar
  31   17   43 1
  32   18   44 1
  33   19   29 ar
  34   19   33 ar
  35   20   21 1
  36   20   45 1
  37   20   46 1
  38   21   22 1
  39   21   47 1
  40   21   48 1
  41   23   24 1
  42   23   49 1
  43   23   50 1
  44   24   25 1
  45   24   28 1
  46   24   51 1
  47   25   26 1
  48   25   52 1
  49   25   53 1
  50   26   27 1
  51   26   54 1
  52   26   55 1
  53   27   28 1
  54   27   56 1
  55   27   57 1
  56   29   30 ar
  57   29   58 1
  58   30   31 ar
  59   30   59 1
  60   31   32 ar
  61   31   34 1
  62   32   33 ar
  63   32   36 1
  64   33   60 1
  65   34   35 1
  66   34   37 1
  67   35   36 2
  68   35   61 1
  69   36   62 1
  70   37   63 1
  71   37   64 1
  72   37   65 1

#	End of record

