#	Name: ASD01200225
#	Creating user name:	WinNT
#	Creation time:	15. 06. 2019 19:08

#	Modifying user name:	WinNT
#	Modification time:	15. 06. 2019 19:08

#	Program:	/corina/corina34_cracker 3.40 0067  02.08.2006

@<TRIPOS>MOLECULE
ASD01200225
  48   49    0    0    0
SMALL
NO_CHARGES


@<TRIPOS>ATOM
   1 C1             0.4630     1.0852     0.0063 C.ar    
   2 C2             0.3005    -0.2874     0.0048 C.ar    
   3 C3            -0.9699    -0.8330     0.0070 C.ar    
   4 C4            -2.0773    -0.0060     0.0111 C.ar    
   5 C5            -1.9147     1.3670     0.0135 C.ar    
   6 C6            -0.6447     1.9125     0.0157 C.ar    
   7 C7            -1.1471    -2.3296     0.0044 C.3     
   8 C8            -1.9200    -2.7538     1.2548 C.3     
   9 C9            -1.9148    -2.7424    -1.2250 C.2     
  10 N10           -2.0928    -4.0495    -1.5010 N.am    
  11 O11           -2.3724    -1.8986    -1.9656 O.2     
  12 C12           -1.0779    -2.4619     2.4984 C.3     
  13 C13           -2.6937    -4.4200    -2.6491 C.2     
  14 N14           -2.8717    -5.7272    -2.9251 N.am    
  15 O15           -3.0751    -3.5755    -3.4354 O.2     
  16 C16           -1.8948    -2.7554     3.7689 C.3     
  17 C17           -1.1362    -3.8583     4.5356 C.3     
  18 C18            0.3255    -3.7288     4.0398 C.3     
  19 C19            0.1486    -3.3967     2.5373 C.3     
  20 C20           -3.5248    -6.1300    -4.1731 C.3     
  21 C21            2.4937     1.9617    -1.7540 C.3     
  22 F22            1.5615     2.8059    -2.3668 F       
  23 F23            2.4632     0.7068    -2.3717 F       
  24 F24            3.7739     2.5119    -1.8787 F       
  25 S25            2.0819     1.7806     0.0034 S.o2    
  26 O26            1.9171     3.0547     0.6107 O.2     
  27 O27            2.8936     0.7816     0.6054 O.2     
  28 H28            1.1658    -0.9336     0.0015 H       
  29 H29           -3.0696    -0.4323     0.0121 H       
  30 H30           -2.7800     2.0132     0.0164 H       
  31 H31           -0.5177     2.9850     0.0176 H       
  32 H32           -0.1693    -2.8112     0.0008 H       
  33 H33           -2.8552    -2.1967     1.3102 H       
  34 H34           -2.1354    -3.8211     1.2041 H       
  35 H35           -1.7884    -4.7236    -0.8734 H       
  36 H36           -0.7550    -1.4209     2.4943 H       
  37 H37           -2.5672    -6.4012    -2.2975 H       
  38 H38           -1.9676    -1.8571     4.3819 H       
  39 H39           -2.8912    -3.1058     3.4995 H       
  40 H40           -1.1915    -3.6831     5.6100 H       
  41 H41           -1.5376    -4.8408     4.2872 H       
  42 H42            0.8384    -2.9179     4.5570 H       
  43 H43            0.8613    -4.6695     4.1670 H       
  44 H44           -0.0453    -4.3046     1.9662 H       
  45 H45            1.0309    -2.8845     2.1534 H       
  46 H46           -3.5790    -7.2176    -4.2202 H       
  47 H47           -4.5319    -5.7143    -4.2067 H       
  48 H48           -2.9496    -5.7577    -5.0208 H       
@<TRIPOS>BOND
   1    1    2 ar
   2    1   25 1
   3    1    6 ar
   4    2    3 ar
   5    2   28 1
   6    3    4 ar
   7    3    7 1
   8    4    5 ar
   9    4   29 1
  10    5    6 ar
  11    5   30 1
  12    6   31 1
  13    7    8 1
  14    7    9 1
  15    7   32 1
  16    8   12 1
  17    8   33 1
  18    8   34 1
  19    9   10 am
  20    9   11 2
  21   10   13 am
  22   10   35 1
  23   12   16 1
  24   12   19 1
  25   12   36 1
  26   13   14 am
  27   13   15 2
  28   14   20 1
  29   14   37 1
  30   16   17 1
  31   16   38 1
  32   16   39 1
  33   17   18 1
  34   17   40 1
  35   17   41 1
  36   18   19 1
  37   18   42 1
  38   18   43 1
  39   19   44 1
  40   19   45 1
  41   20   46 1
  42   20   47 1
  43   20   48 1
  44   21   22 1
  45   21   23 1
  46   21   24 1
  47   21   25 1
  48   25   26 2
  49   25   27 2

#	End of record

