#	Name: ASD03091042
#	Creating user name:	WinNT
#	Creation time:	15. 06. 2019 20:29

#	Modifying user name:	WinNT
#	Modification time:	15. 06. 2019 20:29

#	Program:	/corina/corina34_cracker 3.40 0067  02.08.2006

@<TRIPOS>MOLECULE
ASD03091042
  24   24    0    0    0
SMALL
NO_CHARGES


@<TRIPOS>ATOM
   1 C1            -0.0405     1.4281    -0.5159 C.2     
   2 C2            -0.0088    -0.0265    -0.2532 C.ar    
   3 C3             1.2131    -0.6878    -0.1184 C.ar    
   4 C4             1.2372    -2.0451     0.1266 C.ar    
   5 C5             0.0536    -2.7525     0.2392 C.ar    
   6 C6            -1.1632    -2.1033     0.1068 C.ar    
   7 C7            -1.2003    -0.7427    -0.1332 C.ar    
   8 O8             0.5266     1.8822    -1.4905 O.2     
   9 N9            -0.7028     2.2500     0.3221 N.am    
  10 N10            2.4812     0.0662    -0.2389 N.pl3   
  11 O11            3.5442    -0.5282    -0.2522 O.2     
  12 O12            2.4615     1.2810    -0.3246 O.2     
  13 C13           -0.7342     3.6914     0.0617 C.3     
  14 C14           -1.5458     4.3895     1.1548 C.3     
  15 F15           -2.3152    -2.8003     0.2179 F       
  16 H16            2.1825    -2.5569     0.2305 H       
  17 H17            0.0783    -3.8151     0.4308 H       
  18 H18           -2.1489    -0.2360    -0.2320 H       
  19 H19           -1.1587     1.8872     1.0976 H       
  20 H20            0.2833     4.0823     0.0590 H       
  21 H21           -1.1968     3.8755    -0.9079 H       
  22 H22           -2.5633     3.9986     1.1576 H       
  23 H23           -1.0832     4.2054     2.1244 H       
  24 H24           -1.5692     5.4619     0.9611 H       
@<TRIPOS>BOND
   1    1    2 1
   2    1    8 2
   3    1    9 am
   4    2    3 ar
   5    2    7 ar
   6    3    4 ar
   7    3   10 1
   8    4    5 ar
   9    4   16 1
  10    5    6 ar
  11    5   17 1
  12    6    7 ar
  13    6   15 1
  14    7   18 1
  15    9   13 1
  16    9   19 1
  17   10   11 2
  18   10   12 2
  19   13   14 1
  20   13   20 1
  21   13   21 1
  22   14   22 1
  23   14   23 1
  24   14   24 1

#	End of record

