#	Name: ASD02198533
#	Creating user name:	WinNT
#	Creation time:	15. 06. 2019 20:19

#	Modifying user name:	WinNT
#	Modification time:	15. 06. 2019 20:19

#	Program:	/corina/corina34_cracker 3.40 0067  02.08.2006

@<TRIPOS>MOLECULE
ASD02198533
  44   47    0    0    0
SMALL
NO_CHARGES


@<TRIPOS>ATOM
   1 C1            -0.2821     1.6234    -0.2722 C.2     
   2 C2            -0.4280     0.2757    -0.2172 C.2     
   3 N3             0.6477    -0.5333    -0.0865 N.pl3   
   4 N4             1.8507    -0.0978    -0.0075 N.2     
   5 C5             2.1332     1.1863    -0.0483 C.2     
   6 C6             1.0294     2.1500    -0.1887 C.2     
   7 C7             0.4370    -1.9151    -0.0344 C.ar    
   8 C8            -1.0602    -3.7849     0.0823 C.ar    
   9 C9             0.0200    -4.6486     0.0687 C.ar    
  10 C10            1.3080    -4.1490     0.0095 C.ar    
  11 C11            1.5197    -2.7852    -0.0420 C.ar    
  12 C12            3.5316     1.6524     0.0455 C.2     
  13 N13            4.1827     2.4526    -0.8508 N.pl3   
  14 N14            5.4863     2.6495    -0.3786 N.2     
  15 C15            5.6272     2.0023     0.7507 C.2     
  16 C16            4.4234     1.3673     1.0562 C.2     
  17 C17            3.6431     2.9807    -2.0306 C.ar    
  18 C18            2.8449     2.1891    -2.8459 C.ar    
  19 O19            1.2363     3.3535    -0.2321 O.2     
  20 C20            3.9004     4.2986    -2.3845 C.ar    
  21 C21            3.3669     4.8163    -3.5484 C.ar    
  22 C22            2.5771     4.0238    -4.3611 C.ar    
  23 C23            2.3143     2.7128    -4.0085 C.ar    
  24 C24           -0.8557    -2.4203     0.0310 C.ar    
  25 F25           -2.4143    -5.7316     0.1845 F       
  26 F26           -3.0968    -3.8579     1.2991 F       
  27 C27           -2.4621    -4.3339     0.1468 C.3     
  28 F28           -3.1768    -3.9220    -0.9831 F       
  29 C29            6.8812     1.9554     1.5853 C.3     
  30 F30            7.8439     2.8042     1.0286 F       
  31 F31            6.5898     2.3721     2.8886 F       
  32 F32            7.3739     0.6463     1.6134 F       
  33 H33           -1.1381     2.2730    -0.3805 H       
  34 H34           -1.4159    -0.1565    -0.2783 H       
  35 H35           -0.1428    -5.7157     0.1047 H       
  36 H36            2.1493    -4.8262    -0.0010 H       
  37 H37            2.5259    -2.3956    -0.0886 H       
  38 H38            4.2276     0.7571     1.9255 H       
  39 H39            2.6395     1.1650    -2.5713 H       
  40 H40            4.5169     4.9181    -1.7500 H       
  41 H41            3.5664     5.8414    -3.8240 H       
  42 H42            2.1607     4.4311    -5.2705 H       
  43 H43            1.6974     2.0962    -4.6455 H       
  44 H44           -1.6996    -1.7464     0.0420 H       
@<TRIPOS>BOND
   1    1    2 2
   2    1    6 1
   3    1   33 1
   4    2    3 1
   5    2   34 1
   6    3    4 1
   7    3    7 1
   8    4    5 2
   9    5    6 1
  10    5   12 1
  11    6   19 2
  12    7   24 ar
  13    7   11 ar
  14    8    9 ar
  15    8   27 1
  16    8   24 ar
  17    9   10 ar
  18    9   35 1
  19   10   11 ar
  20   10   36 1
  21   11   37 1
  22   12   13 1
  23   12   16 2
  24   13   14 1
  25   13   17 1
  26   14   15 2
  27   15   16 1
  28   15   29 1
  29   16   38 1
  30   17   20 ar
  31   17   18 ar
  32   18   23 ar
  33   18   39 1
  34   20   21 ar
  35   20   40 1
  36   21   22 ar
  37   21   41 1
  38   22   23 ar
  39   22   42 1
  40   23   43 1
  41   24   44 1
  42   25   27 1
  43   26   27 1
  44   27   28 1
  45   29   30 1
  46   29   31 1
  47   29   32 1

#	End of record

