#	Name: ASD01148198
#	Creating user name:	WinNT
#	Creation time:	15. 06. 2019 19:02

#	Modifying user name:	WinNT
#	Modification time:	15. 06. 2019 19:02

#	Program:	/corina/corina34_cracker 3.40 0067  02.08.2006

@<TRIPOS>MOLECULE
ASD01148198
  44   46    0    0    0
SMALL
NO_CHARGES


@<TRIPOS>ATOM
   1 C1            -0.0167     1.3788     0.0096 C.ar    
   2 C2             0.0021    -0.0041     0.0020 C.ar    
   3 C3             1.2111    -0.6793    -0.0132 C.ar    
   4 C4             2.3983     0.0300    -0.0207 C.ar    
   5 C5             2.3777     1.4123    -0.0131 C.ar    
   6 C6             1.1711     2.0863     0.0021 C.ar    
   7 C7             3.6717     2.1848    -0.0213 C.3     
   8 O8             4.6969     1.4669    -0.7376 O.3     
   9 C9             3.5414     3.4746    -0.8662 C.3     
  10 C10            4.0448     3.0300    -2.2262 C.2     
  11 N11            4.6709     1.9106    -2.0798 N.2     
  12 C12            3.8520     3.7530    -3.4985 C.ar    
  13 C13            4.3706     3.2290    -4.6855 C.ar    
  14 C14            3.1459     4.9586    -3.5169 C.ar    
  15 C15            2.9661     5.6329    -4.7034 C.ar    
  16 C16            3.4893     5.1116    -5.8894 C.ar    
  17 C17            4.1908     3.9034    -5.8719 C.ar    
  18 C18            3.2959     5.8350    -7.1629 C.2     
  19 O19            2.6817     6.8838    -7.1788 O.2     
  20 N20            3.8006     5.3322    -8.3069 N.am    
  21 C21            4.1231     2.5066     1.4048 C.3     
  22 F22            4.2989     1.3161     2.1181 F       
  23 F23            5.3325     3.2086     1.3638 F       
  24 F24            3.1507     3.2894     2.0363 F       
  25 Cl25           1.2364    -2.4151    -0.0221 Cl      
  26 Cl26          -1.4891    -0.8929     0.0121 Cl      
  27 C27            3.6197     6.0087    -9.4979 C.2     
  28 N28            2.9674     7.1226    -9.5148 N.2     
  29 O29            2.7820     7.8161   -10.7354 O.3     
  30 C30            2.0428     9.0322   -10.6065 C.3     
  31 H31           -0.9592     1.9060     0.0170 H       
  32 H32            3.3415    -0.4959    -0.0322 H       
  33 H33            1.1560     3.1662     0.0080 H       
  34 H34            2.5013     3.7955    -0.9245 H       
  35 H35            4.1700     4.2676    -0.4612 H       
  36 H36            4.9129     2.2951    -4.6720 H       
  37 H37            2.7409     5.3612    -2.6002 H       
  38 H38            2.4204     6.5647    -4.7176 H       
  39 H39            4.5955     3.5006    -6.7886 H       
  40 H40            4.2908     4.4952    -8.2942 H       
  41 H41            4.0241     5.6058   -10.4146 H       
  42 H42            1.0525     8.8148   -10.2065 H       
  43 H43            2.5679     9.7066    -9.9300 H       
  44 H44            1.9443     9.5029   -11.5847 H       
@<TRIPOS>BOND
   1    1    2 ar
   2    1    6 ar
   3    1   31 1
   4    2    3 ar
   5    2   26 1
   6    3    4 ar
   7    3   25 1
   8    4    5 ar
   9    4   32 1
  10    5    6 ar
  11    5    7 1
  12    6   33 1
  13    7    8 1
  14    7    9 1
  15    7   21 1
  16    8   11 1
  17    9   10 1
  18    9   34 1
  19    9   35 1
  20   10   11 2
  21   10   12 1
  22   12   13 ar
  23   12   14 ar
  24   13   17 ar
  25   13   36 1
  26   14   15 ar
  27   14   37 1
  28   15   16 ar
  29   15   38 1
  30   16   17 ar
  31   16   18 1
  32   17   39 1
  33   18   19 2
  34   18   20 am
  35   20   27 1
  36   20   40 1
  37   21   22 1
  38   21   23 1
  39   21   24 1
  40   27   28 2
  41   27   41 1
  42   28   29 1
  43   29   30 1
  44   30   42 1
  45   30   43 1
  46   30   44 1

#	End of record

