#	Name: ASD01884363
#	Creating user name:	WinNT
#	Creation time:	15. 06. 2019 19:48

#	Modifying user name:	WinNT
#	Modification time:	15. 06. 2019 19:48

#	Program:	/corina/corina34_cracker 3.40 0067  02.08.2006

@<TRIPOS>MOLECULE
ASD01884363
  23   24    0    0    0
SMALL
NO_CHARGES


@<TRIPOS>ATOM
   1 C1            -0.0168     1.3902     0.0097 C.2     
   2 C2             0.0021    -0.0041     0.0020 C.2     
   3 C3            -1.2114    -0.6966     0.0104 C.2     
   4 C4            -2.3836    -0.0151     0.0257 C.2     
   5 N5            -2.4089     1.3403     0.0332 N.am    
   6 C6            -1.2689     2.0569     0.0312 C.2     
   7 O7            -1.3127     3.2752     0.0381 O.2     
   8 C8            -3.6976     2.0367     0.0493 C.3     
   9 C9            -4.1325     2.2714     1.4973 C.3     
  10 Br10           1.6436    -0.9425    -0.0200 Br      
  11 C11            1.2058     2.1357     0.0020 C.1     
  12 N12            2.1757     2.7271    -0.0041 N.1     
  13 C13           -5.4027     3.0922     1.7292 C.3     
  14 C14           -5.4133     1.5815     1.9709 C.3     
  15 H15           -1.2158    -1.7766     0.0043 H       
  16 H16           -3.3146    -0.5624     0.0317 H       
  17 H17           -3.5991     2.9952    -0.4604 H       
  18 H18           -4.4453     1.4293    -0.4607 H       
  19 H19           -3.3233     2.3816     2.2192 H       
  20 H20           -5.4293     3.7421     2.6040 H       
  21 H21           -5.9285     3.4650     0.8502 H       
  22 H22           -5.9462     0.9604     1.2509 H       
  23 H23           -5.4469     1.2374     3.0046 H       
@<TRIPOS>BOND
   1    1    2 2
   2    1   11 1
   3    1    6 1
   4    2    3 1
   5    2   10 1
   6    3    4 2
   7    3   15 1
   8    4    5 1
   9    4   16 1
  10    5    6 am
  11    5    8 1
  12    6    7 2
  13    8    9 1
  14    8   17 1
  15    8   18 1
  16    9   13 1
  17    9   14 1
  18    9   19 1
  19   11   12 3
  20   13   14 1
  21   13   20 1
  22   13   21 1
  23   14   22 1
  24   14   23 1

#	End of record

