#	Name: ASD03731459
#	Creating user name:	WinNT
#	Creation time:	15. 06. 2019 20:45

#	Modifying user name:	WinNT
#	Modification time:	15. 06. 2019 20:45

#	Program:	/corina/corina34_cracker 3.40 0067  02.08.2006

@<TRIPOS>MOLECULE
ASD03731459
  61   66    0    0    0
SMALL
NO_CHARGES


@<TRIPOS>ATOM
   1 C1            -0.0187     1.5258     0.0104 C.3     
   2 C2             0.0021    -0.0041     0.0020 C.3     
   3 C3             0.7421    -0.5109     1.2415 C.3     
   4 C4             2.1775     0.0187     1.2307 C.3     
   5 C5             2.1567     1.5485     1.2391 C.3     
   6 C6             1.4167     2.0553    -0.0004 C.3     
   7 C7            -0.7475     2.0250    -1.2105 C.2     
   8 O8            -1.2053     1.2350    -2.0087 O.2     
   9 N9            -0.8907     3.3494    -1.4153 N.am    
  10 C10           -1.5992     3.8347    -2.6021 C.3     
  11 C11           -1.6200     5.3645    -2.5937 C.3     
  12 C12           -2.3600     5.8714    -3.8333 C.3     
  13 O13            1.8224    10.8795    -0.8138 O.3     
  14 C14            2.2171    12.2447    -0.5827 C.3     
  15 O15            2.0498    12.8717    -1.8680 O.3     
  16 C16            1.0776    12.1523    -2.5021 C.ar    
  17 C17            0.9390    10.9270    -1.8540 C.ar    
  18 C18            0.2861    12.4490    -3.5971 C.ar    
  19 C19           -0.6503    11.5296    -4.0602 C.ar    
  20 C20           -0.7738    10.3056    -3.4096 C.ar    
  21 C21            0.0096    10.0092    -2.3138 C.ar    
  22 O22           -1.5299    11.6285    -5.0978 O.3     
  23 C23           -1.8310     9.5311    -4.1502 C.3     
  24 C24           -1.9838    10.3109    -5.4632 C.3     
  25 N25           -2.3798     7.3362    -3.8252 N.am    
  26 C26           -1.4272     8.1048    -4.3898 C.2     
  27 C27           -3.1219     9.4567    -3.3900 C.ar    
  28 C28           -3.9835    10.4038    -2.8833 C.ar    
  29 C29           -5.1272    10.0111    -2.2111 C.ar    
  30 C30           -5.4025     8.6655    -2.0489 C.ar    
  31 C31           -4.5421     7.7131    -2.5538 C.ar    
  32 C32           -3.3886     8.0992    -3.2322 C.ar    
  33 O33           -0.4381     7.7198    -4.9767 O.2     
  34 H34           -0.5289     1.8773     0.9072 H       
  35 H35           -1.0205    -0.3814     0.0098 H       
  36 H36            0.5123    -0.3556    -0.8948 H       
  37 H37            0.2319    -0.1594     2.1383 H       
  38 H38            0.7568    -1.6008     1.2356 H       
  39 H39            2.7046    -0.3424     2.1137 H       
  40 H40            2.6876    -0.3328     0.3339 H       
  41 H41            1.6465     1.9000     2.1359 H       
  42 H42            3.1793     1.9258     1.2314 H       
  43 H43            1.9269     1.7038    -0.8972 H       
  44 H44            1.4019     3.1452     0.0056 H       
  45 H45           -0.5245     3.9812    -0.7768 H       
  46 H46           -1.0890     3.4832    -3.4989 H       
  47 H47           -2.6218     3.4574    -2.5944 H       
  48 H48           -2.1302     5.7160    -1.6969 H       
  49 H49           -0.5974     5.7418    -2.6015 H       
  50 H50           -1.8498     5.5198    -4.7301 H       
  51 H51           -3.3826     5.4941    -3.8255 H       
  52 H52            1.5677    12.7110     0.1583 H       
  53 H53            3.2588    12.2938    -0.2654 H       
  54 H54            0.3956    13.4006    -4.0960 H       
  55 H55           -0.1019     9.0587    -1.8133 H       
  56 H56           -3.0264    10.3347    -5.7803 H       
  57 H57           -1.3508     9.8856    -6.2420 H       
  58 H58           -3.7664    11.4540    -3.0110 H       
  59 H59           -5.8037    10.7537    -1.8143 H       
  60 H60           -6.2953     8.3590    -1.5241 H       
  61 H61           -4.7636     6.6642    -2.4227 H       
@<TRIPOS>BOND
   1    1    2 1
   2    1    6 1
   3    1    7 1
   4    1   34 1
   5    2    3 1
   6    2   35 1
   7    2   36 1
   8    3    4 1
   9    3   37 1
  10    3   38 1
  11    4    5 1
  12    4   39 1
  13    4   40 1
  14    5    6 1
  15    5   41 1
  16    5   42 1
  17    6   43 1
  18    6   44 1
  19    7    8 2
  20    7    9 am
  21    9   10 1
  22    9   45 1
  23   10   11 1
  24   10   46 1
  25   10   47 1
  26   11   12 1
  27   11   48 1
  28   11   49 1
  29   12   25 1
  30   12   50 1
  31   12   51 1
  32   13   14 1
  33   13   17 1
  34   14   15 1
  35   14   52 1
  36   14   53 1
  37   15   16 1
  38   16   17 ar
  39   16   18 ar
  40   17   21 ar
  41   18   19 ar
  42   18   54 1
  43   19   20 ar
  44   19   22 1
  45   20   21 ar
  46   20   23 1
  47   21   55 1
  48   22   24 1
  49   23   24 1
  50   23   26 1
  51   23   27 1
  52   24   56 1
  53   24   57 1
  54   25   26 am
  55   25   32 1
  56   26   33 2
  57   27   28 ar
  58   27   32 ar
  59   28   29 ar
  60   28   58 1
  61   29   30 ar
  62   29   59 1
  63   30   31 ar
  64   30   60 1
  65   31   32 ar
  66   31   61 1

#	End of record

