#	Name: ASD00170249
#	Creating user name:	WinNT
#	Creation time:	15. 06. 2019 18:31

#	Modifying user name:	WinNT
#	Modification time:	15. 06. 2019 18:31

#	Program:	/corina/corina34_cracker 3.40 0067  02.08.2006

@<TRIPOS>MOLECULE
ASD00170249
  40   42    0    0    0
SMALL
NO_CHARGES


@<TRIPOS>ATOM
   1 C1            -0.0161     1.3329     0.0094 C.2     
   2 C2             0.0021    -0.0041     0.0020 C.2     
   3 C3            -1.3332    -0.5761     0.0108 C.2     
   4 C4            -2.3255     0.3657     0.0249 C.2     
   5 S5            -1.6655     1.9350     0.0208 S.3     
   6 N6            -3.6780     0.0821     0.0355 N.pl3   
   7 C7            -1.5915    -2.0176     0.0046 C.2     
   8 N8            -1.7210    -2.6740    -1.1654 N.am    
   9 O9            -1.6893    -2.6229     1.0562 O.2     
  10 C10            1.2251     2.2048     0.0022 C.3     
  11 C11            2.4302     1.3490     0.4016 C.3     
  12 C12            2.4402     0.0736    -0.4465 C.3     
  13 C13            1.2807    -0.8265    -0.0137 C.3     
  14 C14           -1.9794    -4.1160    -1.1716 C.3     
  15 C15           -2.0809    -4.6020    -2.5944 C.ar    
  16 C16           -0.9492    -5.0360    -3.2590 C.ar    
  17 C17           -1.0423    -5.4818    -4.5642 C.ar    
  18 C18           -2.2673    -5.4940    -5.2046 C.ar    
  19 C19           -3.3992    -5.0608    -4.5398 C.ar    
  20 C20           -3.3068    -4.6191    -3.2332 C.ar    
  21 N21           -2.3668    -5.9704    -6.6025 N.pl3   
  22 O22           -1.3694    -6.3517    -7.1885 O.2     
  23 O23           -3.4462    -5.9812    -7.1668 O.2     
  24 H24           -3.9803    -0.8396     0.0331 H       
  25 H25           -4.3251     0.8047     0.0453 H       
  26 H26           -1.6431    -2.1916    -2.0033 H       
  27 H27            1.3805     2.6111    -0.9972 H       
  28 H28            1.1032     3.0199     0.7155 H       
  29 H29            3.3489     1.9094     0.2282 H       
  30 H30            2.3563     1.0848     1.4565 H       
  31 H31            2.3256     0.3349    -1.4985 H       
  32 H32            3.3837    -0.4527    -0.3017 H       
  33 H33            1.4755    -1.2186     0.9845 H       
  34 H34            1.1758    -1.6514    -0.7185 H       
  35 H35           -1.1628    -4.6336    -0.6682 H       
  36 H36           -2.9148    -4.3197    -0.6504 H       
  37 H37            0.0079    -5.0265    -2.7586 H       
  38 H38           -0.1580    -5.8202    -5.0836 H       
  39 H39           -4.3562    -5.0700    -5.0403 H       
  40 H40           -4.1911    -4.2807    -2.7137 H       
@<TRIPOS>BOND
   1    1    2 2
   2    1   10 1
   3    1    5 1
   4    2    3 1
   5    2   13 1
   6    3    4 2
   7    3    7 1
   8    4    5 1
   9    4    6 1
  10    6   24 1
  11    6   25 1
  12    7    8 am
  13    7    9 2
  14    8   14 1
  15    8   26 1
  16   10   11 1
  17   10   27 1
  18   10   28 1
  19   11   12 1
  20   11   29 1
  21   11   30 1
  22   12   13 1
  23   12   31 1
  24   12   32 1
  25   13   33 1
  26   13   34 1
  27   14   15 1
  28   14   35 1
  29   14   36 1
  30   15   16 ar
  31   15   20 ar
  32   16   17 ar
  33   16   37 1
  34   17   18 ar
  35   17   38 1
  36   18   19 ar
  37   18   21 1
  38   19   20 ar
  39   19   39 1
  40   20   40 1
  41   21   22 2
  42   21   23 2

#	End of record

