#	Name: ASD01914902
#	Creating user name:	WinNT
#	Creation time:	15. 06. 2019 20:04

#	Modifying user name:	WinNT
#	Modification time:	15. 06. 2019 20:04

#	Program:	/corina/corina34_cracker 3.40 0067  02.08.2006

@<TRIPOS>MOLECULE
ASD01914902
  40   41    0    0    0
SMALL
NO_CHARGES


@<TRIPOS>ATOM
   1 C1            -0.0169     1.3914     0.0097 C.ar    
   2 C2             0.0021    -0.0041     0.0020 C.ar    
   3 C3             1.2364    -0.6632    -0.0133 C.ar    
   4 C4             2.3891     0.1028    -0.0202 C.ar    
   5 C5             2.2855     1.4819    -0.0118 C.ar    
   6 N6             1.1078     2.0764     0.0026 N.ar    
   7 C7            -3.2854    -1.4737     0.4851 C.2     
   8 N8            -2.3631    -0.5398     0.8028 N.pl3   
   9 C9            -1.2609    -0.7732     0.0104 C.2     
  10 C10           -1.5637    -1.8513    -0.7640 C.2     
  11 N11           -2.8016    -2.2495    -0.4475 N.2     
  12 C12           -2.5079     0.5221     1.8016 C.3     
  13 O13           -3.7970     0.4301     2.4112 O.3     
  14 C14           -4.0418     1.4261     3.4063 C.3     
  15 C15           -5.4437     1.2322     3.9878 C.3     
  16 Si16          -5.7628     2.5307     5.2851 Si      
  17 C17           -5.6387     4.2222     4.5143 C.3     
  18 C18           -7.4698     2.2947     5.9932 C.3     
  19 C19           -4.4992     2.3737     6.6450 C.3     
  20 Br20          -0.4354    -2.6451    -2.0572 Br      
  21 H21           -0.9620     1.9140     0.0170 H       
  22 H22            1.2882    -1.7420    -0.0192 H       
  23 H23            3.3593    -0.3715    -0.0316 H       
  24 H24            3.1834     2.0820    -0.0171 H       
  25 H25           -4.2636    -1.5669     0.9333 H       
  26 H26           -1.7367     0.4115     2.5640 H       
  27 H27           -2.4034     1.4931     1.3174 H       
  28 H28           -3.3025     1.3342     4.2019 H       
  29 H29           -3.9692     2.4158     2.9553 H       
  30 H30           -6.1830     1.3241     3.1922 H       
  31 H31           -5.5163     0.2426     4.4388 H       
  32 H32           -6.3780     4.3141     3.7187 H       
  33 H33           -5.8255     4.9819     5.2733 H       
  34 H34           -4.6400     4.3603     4.1000 H       
  35 H35           -7.5424     1.3050     6.4442 H       
  36 H36           -7.6565     3.0544     6.7522 H       
  37 H37           -8.2091     2.3865     5.1976 H       
  38 H38           -3.5005     2.5118     6.2307 H       
  39 H39           -4.6859     3.1334     7.4040 H       
  40 H40           -4.5718     1.3840     7.0959 H       
@<TRIPOS>BOND
   1    1    2 ar
   2    1    6 ar
   3    1   21 1
   4    2    3 ar
   5    2    9 1
   6    3    4 ar
   7    3   22 1
   8    4    5 ar
   9    4   23 1
  10    5    6 ar
  11    5   24 1
  12    7    8 1
  13    7   11 2
  14    7   25 1
  15    8    9 1
  16    8   12 1
  17    9   10 2
  18   10   11 1
  19   10   20 1
  20   12   13 1
  21   12   26 1
  22   12   27 1
  23   13   14 1
  24   14   15 1
  25   14   28 1
  26   14   29 1
  27   15   16 1
  28   15   30 1
  29   15   31 1
  30   16   17 1
  31   16   18 1
  32   16   19 1
  33   17   32 1
  34   17   33 1
  35   17   34 1
  36   18   35 1
  37   18   36 1
  38   18   37 1
  39   19   38 1
  40   19   39 1
  41   19   40 1

#	End of record

