#	Name: ASD07930331
#	Creating user name:	WinNT
#	Creation time:	15. 06. 2019 21:12

#	Modifying user name:	WinNT
#	Modification time:	15. 06. 2019 21:12

#	Program:	/corina/corina34_cracker 3.40 0067  02.08.2006

@<TRIPOS>MOLECULE
ASD07930331
  47   48    0    0    0
SMALL
NO_CHARGES


@<TRIPOS>ATOM
   1 N1            -0.0120     1.4567     0.1324 N.pl3   
   2 C2             0.0021    -0.0041     0.0020 C.3     
   3 C3             0.8073    -0.6062     1.1624 C.3     
   4 N4             2.1275     1.7748     1.0551 N.am    
   5 C5             1.1655     2.1534     0.1467 C.2     
   6 C6            -1.4106    -0.5271     0.0446 C.ar    
   7 C7            -1.6477    -1.8867    -0.0472 C.ar    
   8 C8             2.8203     2.7555     1.8944 C.3     
   9 C9             0.6525    -0.3925    -1.3273 C.3     
  10 C10           -2.4688     0.3515     0.1811 C.ar    
  11 C11           -3.7655    -0.1268     0.2208 C.ar    
  12 C12           -4.0056    -1.4843     0.1236 C.ar    
  13 C13           -2.9468    -2.3666    -0.0079 C.ar    
  14 Cl14          -0.3184    -2.9910    -0.2120 Cl      
  15 F15           -3.1805    -3.6938    -0.1029 F       
  16 S16            2.4654     0.1461     1.1539 S.o2    
  17 O17            3.0975    -0.0121     2.4167 O.2     
  18 O18            3.1483    -0.1517    -0.0561 O.2     
  19 N19            1.3731     3.1604    -0.6876 N.2     
  20 O20            0.6347     4.5374    -2.4131 O.3     
  21 C21           -0.4224     4.8570    -3.3200 C.3     
  22 C22           -1.6775     5.2308    -2.5288 C.3     
  23 C23           -0.0021     6.0379    -4.1974 C.3     
  24 C24           -0.7195     3.6446    -4.2047 C.3     
  25 C25            0.4231     3.5111    -1.5627 C.2     
  26 O26           -0.6319     2.9044    -1.5916 O.2     
  27 H27           -0.8561     1.9292     0.2043 H       
  28 H28            0.3095    -0.3886     2.1074 H       
  29 H29            0.8921    -1.6849     1.0305 H       
  30 H30            2.4478     3.7547     1.6685 H       
  31 H31            2.6377     2.5285     2.9447 H       
  32 H32            3.8910     2.7132     1.6943 H       
  33 H33            1.6749    -0.0158    -1.3553 H       
  34 H34            0.6625    -1.4782    -1.4233 H       
  35 H35            0.0833     0.0398    -2.1503 H       
  36 H36           -2.2827     1.4126     0.2571 H       
  37 H37           -4.5913     0.5609     0.3282 H       
  38 H38           -5.0187    -1.8572     0.1551 H       
  39 H39           -1.4659     6.0946    -1.8985 H       
  40 H40           -2.4839     5.4747    -3.2205 H       
  41 H41           -1.9769     4.3896    -1.9037 H       
  42 H42            0.8920     5.7716    -4.7610 H       
  43 H43           -0.8085     6.2817    -4.8891 H       
  44 H44            0.2095     6.9016    -3.5671 H       
  45 H45           -1.0189     2.8034    -3.5796 H       
  46 H46           -1.5258     3.8884    -4.8964 H       
  47 H47            0.1746     3.3783    -4.7683 H       
@<TRIPOS>BOND
   1    1    2 1
   2    1    5 1
   3    1   27 1
   4    2    3 1
   5    2    6 1
   6    2    9 1
   7    3   16 1
   8    3   28 1
   9    3   29 1
  10    4    5 1
  11    4    8 1
  12    4   16 am
  13    5   19 2
  14    6   10 ar
  15    6    7 ar
  16    7   14 1
  17    7   13 ar
  18    8   30 1
  19    8   31 1
  20    8   32 1
  21    9   33 1
  22    9   34 1
  23    9   35 1
  24   10   11 ar
  25   10   36 1
  26   11   12 ar
  27   11   37 1
  28   12   13 ar
  29   12   38 1
  30   13   15 1
  31   16   17 2
  32   16   18 2
  33   19   25 1
  34   20   21 1
  35   20   25 1
  36   21   22 1
  37   21   23 1
  38   21   24 1
  39   22   39 1
  40   22   40 1
  41   22   41 1
  42   23   42 1
  43   23   43 1
  44   23   44 1
  45   24   45 1
  46   24   46 1
  47   24   47 1
  48   25   26 2

#	End of record

