#	Name: ASD03540329
#	Creating user name:	WinNT
#	Creation time:	15. 06. 2019 20:43

#	Modifying user name:	WinNT
#	Modification time:	15. 06. 2019 20:43

#	Program:	/corina/corina34_cracker 3.40 0067  02.08.2006

@<TRIPOS>MOLECULE
ASD03540329
  53   57    0    0    0
SMALL
NO_CHARGES


@<TRIPOS>ATOM
   1 C1            -0.0161     1.3365     0.0094 C.2     
   2 N2             0.0021    -0.0041     0.0020 N.am    
   3 C3             1.1931    -0.7075    -0.0132 C.2     
   4 C4             2.3928    -0.0051    -0.0209 C.2     
   5 C5             2.3194     1.4734    -0.0115 C.2     
   6 N6             1.1110     2.0661     0.0025 N.am    
   7 C7             3.5129    -0.8381    -0.0361 C.2     
   8 C8             3.2256    -2.1516    -0.0404 C.2     
   9 S9             1.4874    -2.3902    -0.0250 S.3     
  10 C10            4.2183    -3.2259    -0.0565 C.2     
  11 O11            5.4048    -2.9577    -0.0671 O.2     
  12 O12            3.8179    -4.5143    -0.0595 O.3     
  13 O13            3.3358     2.1426    -0.0175 O.2     
  14 O14           -1.0880     1.9101     0.0175 O.2     
  15 C15            1.0243     3.5285     0.0113 C.3     
  16 C16            2.1836     4.3121     2.0574 C.ar    
  17 C17            1.0082     4.0223     1.4350 C.ar    
  18 C18           -0.2096     4.1757     2.0943 C.ar    
  19 C19           -0.2594     4.6195     3.3803 C.ar    
  20 C20            0.9333     4.9284     4.0557 C.ar    
  21 C21            0.9219     5.3897     5.3833 C.ar    
  22 C22            2.0971     5.6794     6.0055 C.ar    
  23 C23            3.3153     5.5262     5.3458 C.ar    
  24 C24            3.3651     5.0824     4.0602 C.ar    
  25 C25            2.1722     4.7723     3.3849 C.ar    
  26 C26           -1.2652    -0.7390     0.0107 C.3     
  27 C27            4.8413    -5.5116    -0.0754 C.3     
  28 C28            4.2094    -6.8798    -0.0765 C.ar    
  29 C29            3.9074    -7.5007    -1.2740 C.ar    
  30 C30            3.3277    -8.7556    -1.2750 C.ar    
  31 C31            3.0505    -9.3898    -0.0785 C.ar    
  32 C32            3.3533    -8.7693     1.1191 C.ar    
  33 C33            3.9370    -7.5162     1.1200 C.ar    
  34 H34            4.5244    -0.4597    -0.0438 H       
  35 H35            1.8863     3.9467    -0.5086 H       
  36 H36            0.1095     3.8412    -0.4921 H       
  37 H37            3.1203     4.1844     1.5352 H       
  38 H38           -1.1279     3.9393     1.5773 H       
  39 H39           -1.2107     4.7339     3.8786 H       
  40 H40           -0.0145     5.5139     5.9068 H       
  41 H41            2.0855     6.0336     7.0256 H       
  42 H42            4.2335     5.7635     5.8625 H       
  43 H43            4.3164     4.9693     3.5615 H       
  44 H44           -2.0950    -0.0322     0.0228 H       
  45 H45           -1.3307    -1.3609    -0.8820 H       
  46 H46           -1.3130    -1.3705     0.8978 H       
  47 H47            5.4510    -5.3923    -0.9710 H       
  48 H48            5.4691    -5.4021     0.8089 H       
  49 H49            4.1240    -7.0051    -2.2089 H       
  50 H50            3.0911    -9.2404    -2.2107 H       
  51 H51            2.5970   -10.3700    -0.0792 H       
  52 H52            3.1364    -9.2647     2.0539 H       
  53 H53            4.1770    -7.0330     2.0556 H       
@<TRIPOS>BOND
   1    1    2 am
   2    1    6 am
   3    1   14 2
   4    2    3 1
   5    2   26 1
   6    3    4 2
   7    3    9 1
   8    4    5 1
   9    4    7 1
  10    5    6 am
  11    5   13 2
  12    6   15 1
  13    7    8 2
  14    7   34 1
  15    8    9 1
  16    8   10 1
  17   10   11 2
  18   10   12 1
  19   12   27 1
  20   15   17 1
  21   15   35 1
  22   15   36 1
  23   16   17 ar
  24   16   25 ar
  25   16   37 1
  26   17   18 ar
  27   18   19 ar
  28   18   38 1
  29   19   20 ar
  30   19   39 1
  31   20   21 ar
  32   20   25 ar
  33   21   22 ar
  34   21   40 1
  35   22   23 ar
  36   22   41 1
  37   23   24 ar
  38   23   42 1
  39   24   25 ar
  40   24   43 1
  41   26   44 1
  42   26   45 1
  43   26   46 1
  44   27   28 1
  45   27   47 1
  46   27   48 1
  47   28   29 ar
  48   28   33 ar
  49   29   30 ar
  50   29   49 1
  51   30   31 ar
  52   30   50 1
  53   31   32 ar
  54   31   51 1
  55   32   33 ar
  56   32   52 1
  57   33   53 1

#	End of record

