#	Name: ASD01140044
#	Creating user name:	WinNT
#	Creation time:	15. 06. 2019 18:59

#	Modifying user name:	WinNT
#	Modification time:	15. 06. 2019 18:59

#	Program:	/corina/corina34_cracker 3.40 0067  02.08.2006

@<TRIPOS>MOLECULE
ASD01140044
  44   47    0    0    0
SMALL
NO_CHARGES


@<TRIPOS>ATOM
   1 C1             0.0717     1.1331     0.0111 C.2     
   2 N2             0.1992    -0.2200     0.0672 N.2     
   3 C3             1.4650    -0.5270     0.0992 C.2     
   4 N4             2.1965     0.6206     0.0776 N.pl3   
   5 C5             3.5871     0.7307     0.1443 C.ar    
   6 C6             4.2860     1.7181    -0.5545 C.ar    
   7 C7             3.6371     2.6608    -1.4739 C.2     
   8 N8             2.5171     3.2778    -1.3147 N.2     
   9 C9             1.7096     3.1122    -0.1012 C.3     
  10 C10            1.3276     1.6577     0.0017 C.2     
  11 C11            5.6745     1.8092    -0.3963 C.ar    
  12 C12            6.3507     0.9078     0.4167 C.ar    
  13 C13            5.6430    -0.0963     1.0826 C.ar    
  14 C14            4.2760    -0.1776     0.9446 C.ar    
  15 C15           -1.1899     1.8891    -0.0371 C.2     
  16 O16           -1.1692     3.1035    -0.0860 O.2     
  17 O17           -2.3684     1.2350    -0.0269 O.3     
  18 C18            4.3574     2.9366    -2.7376 C.ar    
  19 C19            4.5328     1.9212    -3.6815 C.ar    
  20 C20            5.2066     2.1868    -4.8592 C.ar    
  21 C21            5.7059     3.4531    -5.1022 C.ar    
  22 C22            5.5348     4.4619    -4.1706 C.ar    
  23 C23            4.8590     4.2126    -2.9940 C.ar    
  24 F24            4.0458     0.6836    -3.4439 F       
  25 C25            7.7708     1.0075     0.5717 C.1     
  26 C26            8.9350     1.0892     0.6987 C.1     
  27 C27           -3.5724     2.0451    -0.0764 C.3     
  28 C28           -4.8014     1.1340    -0.0565 C.3     
  29 H29            1.8679    -1.5283     0.1367 H       
  30 H30            2.2921     3.4037     0.7727 H       
  31 H31            0.8114     3.7260    -0.1687 H       
  32 H32            6.2233     2.5847    -0.9099 H       
  33 H33            6.1674    -0.8067     1.7043 H       
  34 H34            3.7318    -0.9535     1.4626 H       
  35 H35            5.3436     1.4038    -5.5904 H       
  36 H36            6.2322     3.6557    -6.0233 H       
  37 H37            5.9278     5.4485    -4.3670 H       
  38 H38            4.7225     5.0029    -2.2707 H       
  39 H39            9.9763     1.1623     0.8123 H       
  40 H40           -3.5989     2.7098     0.7871 H       
  41 H41           -3.5743     2.6377    -0.9913 H       
  42 H42           -4.7749     0.4693    -0.9200 H       
  43 H43           -4.7995     0.5414     0.8584 H       
  44 H44           -5.7052     1.7421    -0.0937 H       
@<TRIPOS>BOND
   1    1    2 1
   2    1   10 2
   3    1   15 1
   4    2    3 2
   5    3    4 1
   6    3   29 1
   7    4    5 1
   8    4   10 1
   9    5    6 ar
  10    5   14 ar
  11    6    7 1
  12    6   11 ar
  13    7    8 2
  14    7   18 1
  15    8    9 1
  16    9   10 1
  17    9   30 1
  18    9   31 1
  19   11   12 ar
  20   11   32 1
  21   12   13 ar
  22   12   25 1
  23   13   14 ar
  24   13   33 1
  25   14   34 1
  26   15   16 2
  27   15   17 1
  28   17   27 1
  29   18   19 ar
  30   18   23 ar
  31   19   20 ar
  32   19   24 1
  33   20   21 ar
  34   20   35 1
  35   21   22 ar
  36   21   36 1
  37   22   23 ar
  38   22   37 1
  39   23   38 1
  40   25   26 3
  41   26   39 1
  42   27   28 1
  43   27   40 1
  44   27   41 1
  45   28   42 1
  46   28   43 1
  47   28   44 1

#	End of record

