#	Name: ASD03240328
#	Creating user name:	WinNT
#	Creation time:	15. 06. 2019 20:34

#	Modifying user name:	WinNT
#	Modification time:	15. 06. 2019 20:34

#	Program:	/corina/corina34_cracker 3.40 0067  02.08.2006

@<TRIPOS>MOLECULE
ASD03240328
  93   92    0    0    0
SMALL
NO_CHARGES


@<TRIPOS>ATOM
   1 P1            -0.3342     1.4047    -0.5998 P.3     
   2 O2            -0.1176    -0.1701    -0.3441 O.3     
   3 O3             4.0150     5.9242     0.3849 O.3     
   4 O4             1.0482     2.1864    -0.3355 O.3     
   5 O5             3.4544     3.5447    -1.1262 O.3     
   6 O6            -0.7834     1.6323    -2.0604 O.co2   
   7 O7            -1.4194     1.9381     0.3619 O.co2   
   8 N8            -0.1807    -2.5890     1.2889 N.4     
   9 C9            10.8076    14.5341     2.6146 C.3     
  10 C10           10.6003    13.0222     2.5041 C.3     
  11 C11           12.2501    14.8217     3.0357 C.3     
  12 C12            9.1578    12.7346     2.0829 C.3     
  13 C13           12.4574    16.3335     3.1462 C.3     
  14 C14            8.9506    11.2228     1.9725 C.3     
  15 C15           13.8999    16.6211     3.5673 C.3     
  16 C16            7.5081    10.9352     1.5513 C.3     
  17 C17           14.1071    18.1330     3.6778 C.3     
  18 C18            7.3008     9.4233     1.4408 C.3     
  19 C19           15.5496    18.4206     4.0989 C.3     
  20 C20            5.8583     9.1357     1.0197 C.3     
  21 C21           -0.6337    -2.5191    -0.1068 C.3     
  22 C22           15.7569    19.9325     4.2094 C.3     
  23 C23            5.6510     7.6238     0.9092 C.3     
  24 C24           17.1994    20.2201     4.6305 C.3     
  25 C25           -1.2825    -2.2046     2.1812 C.3     
  26 C26            0.2437    -3.9610     1.5978 C.3     
  27 C27            0.9498    -1.6712     1.4833 C.3     
  28 C28           -1.1834    -1.1206    -0.3951 C.3     
  29 C29            4.2085     7.3362     0.4881 C.3     
  30 C30           17.4066    21.7319     4.7410 C.3     
  31 C31            2.6933     5.5456    -0.0049 C.3     
  32 C32            2.6017     4.0204    -0.0828 C.3     
  33 C33           18.8492    22.0195     5.1622 C.3     
  34 C34            1.1574     3.6106    -0.3778 C.3     
  35 C35            3.9831     2.2375    -0.8942 C.3     
  36 H36           10.6115    14.9992     1.6485 H       
  37 H37           10.1236    14.9411     3.3593 H       
  38 H38           11.2843    12.6152     1.7593 H       
  39 H39           10.7964    12.5570     3.4701 H       
  40 H40           12.4462    14.3565     4.0018 H       
  41 H41           12.9340    14.4146     2.2909 H       
  42 H42            8.4739    13.1416     2.8277 H       
  43 H43            8.9617    13.1998     1.1169 H       
  44 H44           12.2613    16.7987     2.1801 H       
  45 H45           11.7734    16.7406     3.8909 H       
  46 H46            9.6345    10.8157     1.2277 H       
  47 H47            9.1466    10.7576     2.9385 H       
  48 H48           14.0959    16.1560     4.5334 H       
  49 H49           14.5838    16.2141     2.8226 H       
  50 H50            6.8241    11.3422     2.2961 H       
  51 H51            7.3120    11.4003     0.5853 H       
  52 H52           13.9110    18.5982     2.7117 H       
  53 H53           13.4232    18.5400     4.4225 H       
  54 H54            7.9847     9.0163     0.6961 H       
  55 H55            7.4969     8.9581     2.4069 H       
  56 H56           15.7457    17.9554     5.0650 H       
  57 H57           16.2336    18.0136     3.3542 H       
  58 H58            5.1743     9.5427     1.7645 H       
  59 H59            5.6622     9.6009     0.0536 H       
  60 H60            0.2052    -2.7240    -0.7718 H       
  61 H61           -1.4173    -3.2586    -0.2719 H       
  62 H62           15.5608    20.3976     3.2433 H       
  63 H63           15.0729    20.3395     4.9542 H       
  64 H64            6.3350     7.2168     0.1645 H       
  65 H65            5.8471     7.1587     1.8753 H       
  66 H66           17.3955    19.7549     5.5966 H       
  67 H67           17.8833    19.8130     3.8858 H       
  68 H68            0.5965    -0.6418     1.4231 H       
  69 H69            1.3953    -1.8458     2.4626 H       
  70 H70            1.6963    -1.8451     0.7083 H       
  71 H71            1.0613    -4.2462     0.9357 H       
  72 H72            0.5799    -4.0128     2.6334 H       
  73 H73           -0.5951    -4.6419     1.4536 H       
  74 H74           -2.1213    -2.8855     2.0369 H       
  75 H75           -0.9464    -2.2564     3.2167 H       
  76 H76           -1.5974    -1.1865     1.9519 H       
  77 H77           -1.9348    -0.8645     0.3517 H       
  78 H78           -1.6365    -1.1056    -1.3864 H       
  79 H79            4.0125     7.8014    -0.4780 H       
  80 H80            3.5246     7.7433     1.2328 H       
  81 H81           17.2106    22.1971     3.7750 H       
  82 H82           16.7227    22.1389     5.4858 H       
  83 H83            1.9779     5.9155     0.7297 H       
  84 H84            2.4658     5.9737    -0.9812 H       
  85 H85            2.9150     3.5885     0.8677 H       
  86 H86           19.0452    21.5544     6.1282 H       
  87 H87           19.5331    21.6125     4.4174 H       
  88 H88           18.9968    23.0966     5.2409 H       
  89 H89            0.8734     3.9675    -1.3678 H       
  90 H90            0.4957     4.0481     0.3697 H       
  91 H91            4.6195     1.9492    -1.7309 H       
  92 H92            4.5699     2.2407     0.0243 H       
  93 H93            3.1632     1.5256    -0.7992 H       
@<TRIPOS>BOND
   1    1    2 1
   2    1    4 1
   3    1    6 ar
   4    1    7 ar
   5    2   28 1
   6    3   29 1
   7    3   31 1
   8    4   34 1
   9    5   32 1
  10    5   35 1
  11    8   21 1
  12    8   25 1
  13    8   26 1
  14    8   27 1
  15    9   10 1
  16    9   11 1
  17    9   36 1
  18    9   37 1
  19   10   12 1
  20   10   38 1
  21   10   39 1
  22   11   13 1
  23   11   40 1
  24   11   41 1
  25   12   14 1
  26   12   42 1
  27   12   43 1
  28   13   15 1
  29   13   44 1
  30   13   45 1
  31   14   16 1
  32   14   46 1
  33   14   47 1
  34   15   17 1
  35   15   48 1
  36   15   49 1
  37   16   18 1
  38   16   50 1
  39   16   51 1
  40   17   19 1
  41   17   52 1
  42   17   53 1
  43   18   20 1
  44   18   54 1
  45   18   55 1
  46   19   22 1
  47   19   56 1
  48   19   57 1
  49   20   23 1
  50   20   58 1
  51   20   59 1
  52   21   28 1
  53   21   60 1
  54   21   61 1
  55   22   24 1
  56   22   62 1
  57   22   63 1
  58   23   29 1
  59   23   64 1
  60   23   65 1
  61   24   30 1
  62   24   66 1
  63   24   67 1
  64   25   74 1
  65   25   75 1
  66   25   76 1
  67   26   71 1
  68   26   72 1
  69   26   73 1
  70   27   68 1
  71   27   69 1
  72   27   70 1
  73   28   77 1
  74   28   78 1
  75   29   79 1
  76   29   80 1
  77   30   33 1
  78   30   81 1
  79   30   82 1
  80   31   32 1
  81   31   83 1
  82   31   84 1
  83   32   34 1
  84   32   85 1
  85   33   86 1
  86   33   87 1
  87   33   88 1
  88   34   89 1
  89   34   90 1
  90   35   91 1
  91   35   92 1
  92   35   93 1

#	End of record

