#	Name: ASD02030493
#	Creating user name:	WinNT
#	Creation time:	15. 06. 2019 20:15

#	Modifying user name:	WinNT
#	Modification time:	15. 06. 2019 20:15

#	Program:	/corina/corina34_cracker 3.40 0067  02.08.2006

@<TRIPOS>MOLECULE
ASD02030493
  53   56    0    0    0
SMALL
NO_CHARGES


@<TRIPOS>ATOM
   1 N1             0.2538     1.1331    -0.3634 N.am    
   2 C2            -0.0697    -0.2985    -0.4388 C.3     
   3 C3            -1.0194    -0.6477     0.7137 C.3     
   4 N4            -2.1191     0.3272     0.7278 N.am    
   5 C5            -1.7956     1.7588     0.8033 C.3     
   6 C6            -0.8460     2.1077    -0.3436 C.3     
   7 C7             1.5360     1.5445    -0.3077 C.2     
   8 C8             2.6268     0.5524    -0.2011 C.2     
   9 N9             3.9008     0.8204    -0.0121 N.2     
  10 N10            2.4906    -0.7844    -0.2745 N.2     
  11 C11            3.6830    -1.3051    -0.1340 C.2     
  12 N12            4.5549    -0.2890     0.0294 N.pl3   
  13 O13            1.7956     2.7315    -0.3451 O.2     
  14 C14           -3.4013    -0.0843     0.6722 C.2     
  15 C15           -3.7141    -1.5321     0.6429 C.ar    
  16 O16           -4.3009     0.7323     0.6460 O.2     
  17 C17           -0.2833     3.5150    -0.1343 C.3     
  18 C18           -1.6014     2.0454    -1.6727 C.3     
  19 C19            5.9382    -0.4181     0.2127 C.ar    
  20 C20            6.7273     0.7131     0.3698 C.ar    
  21 C21            8.0917     0.5823     0.5509 C.ar    
  22 C22            8.6700    -0.6746     0.5752 C.ar    
  23 C23            7.8855    -1.8026     0.4189 C.ar    
  24 C24            6.5214    -1.6781     0.2433 C.ar    
  25 Cl25           9.0801     1.9959     0.7475 Cl      
  26 N26           -2.7721    -2.4240     0.9363 N.ar    
  27 C27           -3.0539    -3.7112     0.9091 C.ar    
  28 C28           -4.3311    -4.1374     0.5746 C.ar    
  29 N29           -5.2706    -3.2556     0.2818 N.ar    
  30 C30           -4.9984    -1.9635     0.3131 C.ar    
  31 C31           -1.9868    -4.7220     1.2416 C.3     
  32 F32           -2.0055    -4.9852     2.6155 F       
  33 F33           -2.2298    -5.9057     0.5367 F       
  34 F34           -0.7343    -4.2134     0.8813 F       
  35 H35           -0.5549    -0.5143    -1.3908 H       
  36 H36            0.8445    -0.8854    -0.3501 H       
  37 H37           -1.4211    -1.6501     0.5658 H       
  38 H38           -0.4790    -0.6033     1.6593 H       
  39 H39           -2.7098     2.3456     0.7145 H       
  40 H40           -1.3104     1.9745     1.7552 H       
  41 H41            3.9246    -2.3577    -0.1438 H       
  42 H42            0.4174     3.5056     0.7006 H       
  43 H43            0.2329     3.8380    -1.0383 H       
  44 H44           -1.0994     4.2038     0.0839 H       
  45 H45           -2.4259     2.7580    -1.6557 H       
  46 H46           -0.9226     2.2944    -2.4884 H       
  47 H47           -1.9937     1.0393    -1.8208 H       
  48 H48            6.2761     1.6941     0.3502 H       
  49 H49            9.7361    -0.7748     0.7161 H       
  50 H50            8.3397    -2.7823     0.4379 H       
  51 H51            5.9096    -2.5597     0.1217 H       
  52 H52           -4.5580    -5.1931     0.5532 H       
  53 H53           -5.7664    -1.2429     0.0737 H       
@<TRIPOS>BOND
   1    1    2 1
   2    1    7 am
   3    1    6 1
   4    2    3 1
   5    2   35 1
   6    2   36 1
   7    3    4 1
   8    3   37 1
   9    3   38 1
  10    4    5 1
  11    4   14 am
  12    5    6 1
  13    5   39 1
  14    5   40 1
  15    6   17 1
  16    6   18 1
  17    7    8 1
  18    7   13 2
  19    8    9 2
  20    8   10 1
  21    9   12 1
  22   10   11 2
  23   11   12 1
  24   11   41 1
  25   12   19 1
  26   14   15 1
  27   14   16 2
  28   15   26 ar
  29   15   30 ar
  30   17   42 1
  31   17   43 1
  32   17   44 1
  33   18   45 1
  34   18   46 1
  35   18   47 1
  36   19   20 ar
  37   19   24 ar
  38   20   21 ar
  39   20   48 1
  40   21   22 ar
  41   21   25 1
  42   22   23 ar
  43   22   49 1
  44   23   24 ar
  45   23   50 1
  46   24   51 1
  47   26   27 ar
  48   27   28 ar
  49   27   31 1
  50   28   29 ar
  51   28   52 1
  52   29   30 ar
  53   30   53 1
  54   31   32 1
  55   31   33 1
  56   31   34 1

#	End of record

