#	Name: ASD07931083
#	Creating user name:	WinNT
#	Creation time:	15. 06. 2019 21:13

#	Modifying user name:	WinNT
#	Modification time:	15. 06. 2019 21:13

#	Program:	/corina/corina34_cracker 3.40 0067  02.08.2006

@<TRIPOS>MOLECULE
ASD07931083
  43   47    0    0    0
SMALL
NO_CHARGES


@<TRIPOS>ATOM
   1 N1            -0.0161     1.3386     0.0094 N.pl3   
   2 C2             0.0021    -0.0041     0.0020 C.2     
   3 C3             1.1793    -0.7101    -0.0125 C.2     
   4 C4             2.4649     0.0245    -0.0208 C.2     
   5 C5             2.3994     1.4984    -0.0142 C.ar    
   6 C6             3.5528     2.2766    -0.0218 C.ar    
   7 C7             3.4490     3.6522    -0.0158 C.ar    
   8 C8             2.2021     4.2571    -0.0020 C.ar    
   9 C9             1.0517     3.4965     0.0061 C.ar    
  10 C10            1.1343     2.1082     0.0025 C.ar    
  11 N11            2.8980    -2.1587    -0.0347 N.am    
  12 N12            3.4184    -0.8621    -0.0335 N.2     
  13 C13            1.5480    -2.1223    -0.0223 C.2     
  14 O14            0.7891    -3.0779    -0.0198 O.2     
  15 C15            3.6668    -3.3295    -0.0475 C.ar    
  16 C16            4.6177    -3.5284    -1.0432 C.ar    
  17 C17            5.3744    -4.6857    -1.0519 C.ar    
  18 C18            5.1859    -5.6437    -0.0723 C.ar    
  19 C19            4.2411    -5.4482     0.9179 C.ar    
  20 C20            3.4857    -4.2915     0.9366 C.ar    
  21 F21            4.8013    -2.5927    -2.0003 F       
  22 C22           -1.3130     2.0200     0.0191 C.3     
  23 C23           -1.7510     2.2460     1.4432 C.ar    
  24 C24           -1.4802     3.4543     2.0575 C.ar    
  25 C25           -1.8876     3.6526     3.3675 C.ar    
  26 C26           -2.5558     2.6227     4.0142 C.ar    
  27 C27           -2.7911     1.4415     3.3348 C.ar    
  28 N28           -2.3929     1.2907     2.0867 N.ar    
  29 Br29          -3.1366     2.8316     5.8016 Br      
  30 H30           -0.9340    -0.5427     0.0080 H       
  31 H31            4.5248     1.8059    -0.0319 H       
  32 H32            4.3420     4.2595    -0.0217 H       
  33 H33            2.1307     5.3347     0.0030 H       
  34 H34            0.0858     3.9794     0.0176 H       
  35 H35            6.1127    -4.8418    -1.8245 H       
  36 H36            5.7781    -6.5468    -0.0811 H       
  37 H37            4.0965    -6.1989     1.6807 H       
  38 H38            2.7516    -4.1379     1.7138 H       
  39 H39           -1.2230     2.9797    -0.4899 H       
  40 H40           -2.0510     1.4040    -0.4946 H       
  41 H41           -0.9573     4.2340     1.5236 H       
  42 H42           -1.6894     4.5863     3.8729 H       
  43 H43           -3.3102     0.6347     3.8308 H       
@<TRIPOS>BOND
   1    1    2 1
   2    1   10 1
   3    1   22 1
   4    2    3 2
   5    2   30 1
   6    3    4 1
   7    3   13 1
   8    4    5 1
   9    4   12 2
  10    5    6 ar
  11    5   10 ar
  12    6    7 ar
  13    6   31 1
  14    7    8 ar
  15    7   32 1
  16    8    9 ar
  17    8   33 1
  18    9   10 ar
  19    9   34 1
  20   11   12 1
  21   11   13 am
  22   11   15 1
  23   13   14 2
  24   15   16 ar
  25   15   20 ar
  26   16   17 ar
  27   16   21 1
  28   17   18 ar
  29   17   35 1
  30   18   19 ar
  31   18   36 1
  32   19   20 ar
  33   19   37 1
  34   20   38 1
  35   22   23 1
  36   22   39 1
  37   22   40 1
  38   23   24 ar
  39   23   28 ar
  40   24   25 ar
  41   24   41 1
  42   25   26 ar
  43   25   42 1
  44   26   27 ar
  45   26   29 1
  46   27   28 ar
  47   27   43 1

#	End of record

