#	Name: ASD01200162
#	Creating user name:	WinNT
#	Creation time:	15. 06. 2019 19:08

#	Modifying user name:	WinNT
#	Modification time:	15. 06. 2019 19:08

#	Program:	/corina/corina34_cracker 3.40 0067  02.08.2006

@<TRIPOS>MOLECULE
ASD01200162
  47   50    0    0    0
SMALL
NO_CHARGES


@<TRIPOS>ATOM
   1 C1             0.6579     2.2001    -0.1041 C.ar    
   2 C2             0.3909     0.8436    -0.1549 C.ar    
   3 C3             1.4303    -0.0719    -0.1402 C.ar    
   4 C4             2.7318     0.3677    -0.0749 C.ar    
   5 C5             3.0128     1.7353    -0.0232 C.ar    
   6 C6             4.0620    -0.3425    -0.0419 C.3     
   7 N7             5.0858     0.7061     0.0305 N.am    
   8 C8             4.4771     1.9046     0.0412 C.2     
   9 O9             5.0510     2.9747     0.0960 O.2     
  10 O10            4.1401    -1.1854     1.1094 O.3     
  11 C11            6.5328     0.4836     0.0831 C.3     
  12 C12            7.0659     0.3126    -1.3161 C.ar    
  13 C13            3.9248    -0.5020     2.3458 C.3     
  14 C14            4.1529    -1.4535     3.4920 C.2     
  15 O15            4.4687    -2.6036     3.2718 O.2     
  16 N16            4.0059    -1.0264     4.7618 N.am    
  17 C17            4.2162    -1.9040     5.8190 C.2     
  18 C18            7.4946     1.4148    -2.0319 C.ar    
  19 C19            7.9836     1.2579    -3.3153 C.ar    
  20 C20            8.0442    -0.0011    -3.8828 C.ar    
  21 C21            7.6163    -1.1034    -3.1667 C.ar    
  22 C22            7.1314    -0.9471    -1.8816 C.ar    
  23 C23            1.9601     2.6517    -0.0385 C.ar    
  24 C24           -1.0348     0.3606    -0.2260 C.3     
  25 N25            4.1019    -1.5966     7.0731 N.2     
  26 C26            4.3390    -2.5564     7.9476 C.2     
  27 C27            4.6694    -3.7307     7.4066 C.2     
  28 S28            4.6562    -3.5479     5.6544 S.3     
  29 H29           -0.1566     2.9091    -0.1205 H       
  30 H30            1.2187    -1.1302    -0.1796 H       
  31 H31            4.1940    -0.9329    -0.9486 H       
  32 H32            7.0153     1.3403     0.5535 H       
  33 H33            6.7414    -0.4150     0.6637 H       
  34 H34            4.6193     0.3344     2.4243 H       
  35 H35            2.9013    -0.1291     2.3813 H       
  36 H36            3.7533    -0.1066     4.9379 H       
  37 H37            7.4473     2.3984    -1.5885 H       
  38 H38            8.3179     2.1191    -3.8748 H       
  39 H39            8.4255    -0.1235    -4.8858 H       
  40 H40            7.6634    -2.0870    -3.6102 H       
  41 H41            6.7971    -1.8082    -1.3221 H       
  42 H42            2.1642     3.7115     0.0007 H       
  43 H43           -1.3377     0.2746    -1.2696 H       
  44 H44           -1.1129    -0.6136     0.2565 H       
  45 H45           -1.6851     1.0716     0.2836 H       
  46 H46            4.2711    -2.4037     9.0145 H       
  47 H47            4.9001    -4.6361     7.9482 H       
@<TRIPOS>BOND
   1    1    2 ar
   2    1   23 ar
   3    1   29 1
   4    2    3 ar
   5    2   24 1
   6    3    4 ar
   7    3   30 1
   8    4    5 ar
   9    4    6 1
  10    5   23 ar
  11    5    8 1
  12    6    7 1
  13    6   10 1
  14    6   31 1
  15    7    8 am
  16    7   11 1
  17    8    9 2
  18   10   13 1
  19   11   12 1
  20   11   32 1
  21   11   33 1
  22   12   18 ar
  23   12   22 ar
  24   13   14 1
  25   13   34 1
  26   13   35 1
  27   14   15 2
  28   14   16 am
  29   16   17 1
  30   16   36 1
  31   17   25 2
  32   17   28 1
  33   18   19 ar
  34   18   37 1
  35   19   20 ar
  36   19   38 1
  37   20   21 ar
  38   20   39 1
  39   21   22 ar
  40   21   40 1
  41   22   41 1
  42   23   42 1
  43   24   43 1
  44   24   44 1
  45   24   45 1
  46   25   26 1
  47   26   27 2
  48   26   46 1
  49   27   28 1
  50   27   47 1

#	End of record

