#	Name: ASD01882679
#	Creating user name:	WinNT
#	Creation time:	15. 06. 2019 19:45

#	Modifying user name:	WinNT
#	Modification time:	15. 06. 2019 19:45

#	Program:	/corina/corina34_cracker 3.40 0067  02.08.2006

@<TRIPOS>MOLECULE
ASD01882679
  50   54    0    0    0
SMALL
NO_CHARGES


@<TRIPOS>ATOM
   1 C1            -0.0225     1.4206     0.1769 C.3     
   2 O2             0.0028    -0.0024    -0.0188 O.3     
   3 C3             1.2768    -0.2680    -0.6355 C.3     
   4 C4             2.2053     0.8246    -0.1588 C.ar    
   5 C5             3.5796     0.9431    -0.1438 C.ar    
   6 C6             4.1684     2.0859     0.3659 C.ar    
   7 C7             3.3801     3.1087     0.8601 C.ar    
   8 C8             2.0024     2.9904     0.8445 C.ar    
   9 C9             1.4144     1.8508     0.3354 C.ar    
  10 N10           -2.8144     1.8086     0.0359 N.pl3   
  11 C11           -2.0825     1.6022    -1.2211 C.3     
  12 C12           -0.6445     2.1006    -1.0414 C.3     
  13 C13           -0.8168     1.7578     1.4370 C.3     
  14 C14           -2.2565     1.2577     1.2785 C.3     
  15 C15           -6.3072     2.7607    -0.5926 C.2     
  16 C16           -5.1060     2.0307    -0.6220 C.2     
  17 C17           -4.0153     2.5141     0.0495 C.2     
  18 C18           -4.1157     3.7320     0.7561 C.2     
  19 C19           -5.2769     4.4155     0.7706 C.2     
  20 N20           -6.3702     3.9424     0.1050 N.pl3   
  21 N21           -8.2814     3.5392    -0.8035 N.2     
  22 N22           -7.5025     2.5683    -1.1294 N.2     
  23 C23           -7.6444     4.4015    -0.0557 C.2     
  24 C24           -8.2133     5.6721     0.5214 C.3     
  25 C25           -7.9976     6.8216    -0.4651 C.3     
  26 C26           -8.5751     8.1116     0.1207 C.3     
  27 Cl27          -5.0074     0.5350    -1.4977 Cl      
  28 H28            1.6505    -1.2423    -0.3208 H       
  29 H29            1.1829    -0.2339    -1.7210 H       
  30 H30            4.1953     0.1439    -0.5295 H       
  31 H31            5.2442     2.1793     0.3783 H       
  32 H32            3.8407     4.0004     1.2589 H       
  33 H33            1.3871     3.7897     1.2304 H       
  34 H34           -2.0731     0.5407    -1.4685 H       
  35 H35           -2.5660     2.1620    -2.0217 H       
  36 H36           -0.6497     3.1803    -0.8923 H       
  37 H37           -0.0618     1.8585    -1.9302 H       
  38 H38           -0.3561     1.2733     2.2979 H       
  39 H39           -0.8212     2.8376     1.5861 H       
  40 H40           -2.8546     1.5908     2.1267 H       
  41 H41           -2.2619     0.1688     1.2302 H       
  42 H42           -3.2583     4.1174     1.2878 H       
  43 H43           -5.3430     5.3462     1.3143 H       
  44 H44           -9.2805     5.5434     0.7016 H       
  45 H45           -7.7111     5.9010     1.4613 H       
  46 H46           -6.9303     6.9503    -0.6453 H       
  47 H47           -8.4998     6.5927    -1.4051 H       
  48 H48           -8.4214     8.9305    -0.5821 H       
  49 H49           -9.6424     7.9829     0.3009 H       
  50 H50           -8.0729     8.3405     1.0607 H       
@<TRIPOS>BOND
   1    1    2 1
   2    1    9 1
   3    1   12 1
   4    1   13 1
   5    2    3 1
   6    3    4 1
   7    3   28 1
   8    3   29 1
   9    4    5 ar
  10    4    9 ar
  11    5    6 ar
  12    5   30 1
  13    6    7 ar
  14    6   31 1
  15    7    8 ar
  16    7   32 1
  17    8    9 ar
  18    8   33 1
  19   10   11 1
  20   10   14 1
  21   10   17 1
  22   11   12 1
  23   11   34 1
  24   11   35 1
  25   12   36 1
  26   12   37 1
  27   13   14 1
  28   13   38 1
  29   13   39 1
  30   14   40 1
  31   14   41 1
  32   15   16 1
  33   15   20 1
  34   15   22 2
  35   16   17 2
  36   16   27 1
  37   17   18 1
  38   18   19 2
  39   18   42 1
  40   19   20 1
  41   19   43 1
  42   20   23 1
  43   21   22 1
  44   21   23 2
  45   23   24 1
  46   24   25 1
  47   24   44 1
  48   24   45 1
  49   25   26 1
  50   25   46 1
  51   25   47 1
  52   26   48 1
  53   26   49 1
  54   26   50 1

#	End of record

