#	Name: ASD01911215
#	Creating user name:	WinNT
#	Creation time:	15. 06. 2019 19:57

#	Modifying user name:	WinNT
#	Modification time:	15. 06. 2019 19:57

#	Program:	/corina/corina34_cracker 3.40 0067  02.08.2006

@<TRIPOS>MOLECULE
ASD01911215
  45   47    0    0    0
SMALL
NO_CHARGES


@<TRIPOS>ATOM
   1 C1            -0.6137     1.5046     0.6357 C.ar    
   2 N2            -0.4845     0.2035     0.4961 N.ar    
   3 C3             0.5403    -0.3282    -0.1594 C.ar    
   4 C4             1.5191     0.4863    -0.7239 C.ar    
   5 C5             1.4086     1.8618    -0.5923 C.ar    
   6 C6             0.3227     2.3746     0.0995 C.ar    
   7 C7             0.6438    -1.8000    -0.2912 C.2     
   8 N8            -0.3000    -2.5934     0.2532 N.am    
   9 C9            -0.2526    -3.9766     0.0510 C.ar    
  10 C10           -1.4244    -4.7217     0.0612 C.ar    
  11 C11           -1.3748    -6.0874    -0.1393 C.ar    
  12 C12           -0.1589    -6.7132    -0.3500 C.ar    
  13 C13            1.0106    -5.9731    -0.3602 C.ar    
  14 C14            0.9662    -4.6067    -0.1661 C.ar    
  15 C15           -2.7490    -4.0408     0.2911 C.3     
  16 N16           -3.2002    -3.4166    -0.9551 N.am    
  17 O17            1.5797    -2.2921    -0.8901 O.2     
  18 Cl18          -0.1002    -8.4299    -0.6016 Cl      
  19 C19           -3.9640    -4.1134    -1.8197 C.2     
  20 C20           -4.4994    -3.4547    -3.0295 C.ar    
  21 C21           -3.6949    -2.5850    -3.7678 C.ar    
  22 C22           -4.1995    -1.9728    -4.8961 C.ar    
  23 C23           -5.5015    -2.2190    -5.2975 C.ar    
  24 C24           -6.3060    -3.0813    -4.5684 C.ar    
  25 C25           -5.8099    -3.7042    -3.4415 C.ar    
  26 O26           -4.2126    -5.2837    -1.6045 O.2     
  27 C27           -2.8210    -2.0351    -1.2616 C.3     
  28 Cl28          -6.1294    -1.4446    -6.7187 Cl      
  29 Cl29          -7.9377    -3.3834    -5.0783 Cl      
  30 H30           -1.4633     1.9010     1.1718 H       
  31 H31            2.3526     0.0522    -1.2562 H       
  32 H32            2.1518     2.5189    -1.0191 H       
  33 H33            0.2071     3.4416     0.2195 H       
  34 H34           -1.0121    -2.2051     0.7853 H       
  35 H35           -2.2859    -6.6673    -0.1311 H       
  36 H36            1.9584    -6.4642    -0.5242 H       
  37 H37            1.8791    -4.0296    -0.1744 H       
  38 H38           -3.4844    -4.7769     0.6158 H       
  39 H39           -2.6361    -3.2765     1.0601 H       
  40 H40           -2.6792    -2.3916    -3.4559 H       
  41 H41           -3.5777    -1.2995    -5.4675 H       
  42 H42           -6.4370    -4.3759    -2.8740 H       
  43 H43           -1.9257    -2.0334    -1.8832 H       
  44 H44           -3.6351    -1.5449    -1.7955 H       
  45 H45           -2.6203    -1.4992    -0.3339 H       
@<TRIPOS>BOND
   1    1    2 ar
   2    1    6 ar
   3    1   30 1
   4    2    3 ar
   5    3    4 ar
   6    3    7 1
   7    4    5 ar
   8    4   31 1
   9    5    6 ar
  10    5   32 1
  11    6   33 1
  12    7    8 am
  13    7   17 2
  14    8    9 1
  15    8   34 1
  16    9   10 ar
  17    9   14 ar
  18   10   11 ar
  19   10   15 1
  20   11   12 ar
  21   11   35 1
  22   12   13 ar
  23   12   18 1
  24   13   14 ar
  25   13   36 1
  26   14   37 1
  27   15   16 1
  28   15   38 1
  29   15   39 1
  30   16   19 am
  31   16   27 1
  32   19   20 1
  33   19   26 2
  34   20   21 ar
  35   20   25 ar
  36   21   22 ar
  37   21   40 1
  38   22   23 ar
  39   22   41 1
  40   23   24 ar
  41   23   28 1
  42   24   25 ar
  43   24   29 1
  44   25   42 1
  45   27   43 1
  46   27   44 1
  47   27   45 1

#	End of record

