#	Name: ASD01884942
#	Creating user name:	WinNT
#	Creation time:	15. 06. 2019 19:49

#	Modifying user name:	WinNT
#	Modification time:	15. 06. 2019 19:49

#	Program:	/corina/corina34_cracker 3.40 0067  02.08.2006

@<TRIPOS>MOLECULE
ASD01884942
  48   51    0    0    0
SMALL
NO_CHARGES


@<TRIPOS>ATOM
   1 C1            -0.0169     1.3751     0.0012 C.ar    
   2 C2             0.0017    -0.0041    -0.0054 C.ar    
   3 C3            -1.1980    -0.7162     0.0131 C.ar    
   4 C4            -2.4121    -0.0304     0.0383 C.ar    
   5 C5            -2.4238     1.3487     0.0447 C.ar    
   6 C6            -1.2289     2.0548     0.0316 C.ar    
   7 C7            -1.1821    -2.1975     0.0056 C.2     
   8 C8            -1.6593    -2.9067     1.0931 C.2     
   9 C9            -0.6837    -2.9017    -1.1175 C.2     
  10 C10           -0.6706    -4.2477    -1.1226 C.2     
  11 N11           -1.1351    -4.9564    -0.0518 N.pl3   
  12 C12           -1.6313    -4.3122     1.0556 C.2     
  13 Cl13          -2.2826    -2.0745     2.4833 Cl      
  14 C14           -1.2415    -6.2876     0.2140 C.2     
  15 N15           -1.7641    -6.4107     1.4069 N.2     
  16 N16           -1.9991    -5.2516     1.9134 N.2     
  17 C17           -0.8322    -7.4138    -0.6998 C.3     
  18 O18           -1.2442     3.4135     0.0385 O.3     
  19 Cl19           1.4748     2.2628    -0.0213 Cl      
  20 C20           -2.5205     4.0484    -0.0617 C.3     
  21 C21           -2.3480     5.4503    -0.6498 C.3     
  22 C22           -3.7145     6.1301    -0.7570 C.3     
  23 C23           -4.3427     6.2344     0.6341 C.3     
  24 C24           -4.5152     4.8326     1.2223 C.3     
  25 C25           -3.1487     4.1528     1.3295 C.3     
  26 O26           -5.6190     6.8694     0.5340 O.3     
  27 C27            0.6274    -7.7849    -0.4298 C.3     
  28 F28            0.7668    -8.1906     0.9018 F       
  29 F29            1.0073    -8.8304    -1.2781 F       
  30 F30            1.4426    -6.6728    -0.6662 F       
  31 H31            0.9436    -0.5321    -0.0253 H       
  32 H32           -3.3424    -0.5788     0.0523 H       
  33 H33           -3.3639     1.8799     0.0639 H       
  34 H34           -0.3132    -2.3568    -1.9732 H       
  35 H35           -0.2882    -4.7738    -1.9848 H       
  36 H36           -1.4674    -8.2803    -0.5156 H       
  37 H37           -0.9408    -7.0977    -1.7373 H       
  38 H38           -3.1693     3.4597    -0.7101 H       
  39 H39           -1.6992     6.0390    -0.0014 H       
  40 H40           -1.9004     5.3759    -1.6409 H       
  41 H41           -3.5916     7.1288    -1.1761 H       
  42 H42           -4.3633     5.5413    -1.4055 H       
  43 H43           -3.6939     6.8232     1.2826 H       
  44 H44           -4.9628     4.9069     2.2134 H       
  45 H45           -5.1641     4.2438     0.5739 H       
  46 H46           -3.2716     3.1541     1.7485 H       
  47 H47           -2.4999     4.7416     1.9779 H       
  48 H48           -6.0761     6.9693     1.3803 H       
@<TRIPOS>BOND
   1    1    2 ar
   2    1   19 1
   3    1    6 ar
   4    2    3 ar
   5    2   31 1
   6    3    4 ar
   7    3    7 1
   8    4    5 ar
   9    4   32 1
  10    5    6 ar
  11    5   33 1
  12    6   18 1
  13    7    8 2
  14    7    9 1
  15    8   13 1
  16    8   12 1
  17    9   10 2
  18    9   34 1
  19   10   11 1
  20   10   35 1
  21   11   12 1
  22   11   14 1
  23   12   16 2
  24   14   15 2
  25   14   17 1
  26   15   16 1
  27   17   27 1
  28   17   36 1
  29   17   37 1
  30   18   20 1
  31   20   21 1
  32   20   25 1
  33   20   38 1
  34   21   22 1
  35   21   39 1
  36   21   40 1
  37   22   23 1
  38   22   41 1
  39   22   42 1
  40   23   24 1
  41   23   26 1
  42   23   43 1
  43   24   25 1
  44   24   44 1
  45   24   45 1
  46   25   46 1
  47   25   47 1
  48   26   48 1
  49   27   28 1
  50   27   29 1
  51   27   30 1

#	End of record

