#	Name: ASD01001210
#	Creating user name:	WinNT
#	Creation time:	15. 06. 2019 18:55

#	Modifying user name:	WinNT
#	Modification time:	15. 06. 2019 18:55

#	Program:	/corina/corina34_cracker 3.40 0067  02.08.2006

@<TRIPOS>MOLECULE
ASD01001210
  47   50    0    0    0
SMALL
NO_CHARGES


@<TRIPOS>ATOM
   1 C1            -0.0184     1.5078     0.0103 C.3     
   2 C2             0.0021    -0.0041     0.0020 C.ar    
   3 C3            -0.7492     1.9988    -1.2380 C.3     
   4 C4            -0.2419    -0.7302    -1.1488 C.ar    
   5 C5             0.2768    -0.6588     1.1921 C.ar    
   6 C6            -0.1695     1.2737    -2.4535 C.3     
   7 C7            -0.6121     3.5084    -1.3942 C.3     
   8 C8            -0.1970    -2.1267    -1.0979 C.ar    
   9 N9            -0.5475    -0.1397    -2.3778 N.3     
  10 C10           -0.7254     1.8792    -3.7166 C.ar    
  11 C11            0.8679     3.9006    -1.3647 C.3     
  12 C12            0.0795    -2.7744     0.0888 C.ar    
  13 C13            0.3164    -2.0403     1.2386 C.ar    
  14 C14            1.4834     3.3882    -0.0584 C.3     
  15 C15            2.9696     3.7495    -0.0163 C.3     
  16 N16            3.5578     3.2576     1.2366 N.3     
  17 O17            1.3348     1.9701    -0.0001 O.3     
  18 C18            0.0276     2.7871    -4.4375 C.ar    
  19 C19           -0.4824     3.3425    -5.5960 C.ar    
  20 C20           -1.7452     2.9898    -6.0340 C.ar    
  21 C21           -2.4978     2.0812    -5.3136 C.ar    
  22 C22           -1.9861     1.5225    -4.1573 C.ar    
  23 F23            0.5835    -2.6717     2.4028 F       
  24 C24            4.9874     3.5872     1.3121 C.3     
  25 F25           -0.4264    -2.8467    -2.2178 F       
  26 H26           -0.5214     1.8636     0.9095 H       
  27 H27           -1.8058     1.7447    -1.1540 H       
  28 H28            0.4616    -0.0864     2.0890 H       
  29 H29            0.9169     1.3628    -2.4491 H       
  30 H30           -1.0495     3.8156    -2.3442 H       
  31 H31           -1.1352     4.0062    -0.5777 H       
  32 H32           -0.1446    -0.6632    -3.1405 H       
  33 H33            1.3828     3.4500    -2.2132 H       
  34 H34            0.9600     4.9856    -1.4117 H       
  35 H35            0.1118    -3.8535     0.1205 H       
  36 H36            0.9728     3.8452     0.7893 H       
  37 H37            3.4795     3.2891    -0.8625 H       
  38 H38            3.0819     4.8324    -0.0699 H       
  39 H39            3.0605     3.6199     2.0363 H       
  40 H40            1.0142     3.0627    -4.0953 H       
  41 H41            0.1056     4.0523    -6.1588 H       
  42 H42           -2.1439     3.4243    -6.9388 H       
  43 H43           -3.4846     1.8059    -5.6556 H       
  44 H44           -2.5741     0.8126    -3.5945 H       
  45 H45            5.1137     4.6689     1.2678 H       
  46 H46            5.3978     3.2116     2.2494 H       
  47 H47            5.5113     3.1256     0.4751 H       
@<TRIPOS>BOND
   1    1    2 1
   2    1   17 1
   3    1    3 1
   4    1   26 1
   5    2    4 ar
   6    2    5 ar
   7    3    7 1
   8    3    6 1
   9    3   27 1
  10    4    8 ar
  11    4    9 1
  12    5   13 ar
  13    5   28 1
  14    6    9 1
  15    6   10 1
  16    6   29 1
  17    7   11 1
  18    7   30 1
  19    7   31 1
  20    8   12 ar
  21    8   25 1
  22    9   32 1
  23   10   18 ar
  24   10   22 ar
  25   11   14 1
  26   11   33 1
  27   11   34 1
  28   12   13 ar
  29   12   35 1
  30   13   23 1
  31   14   15 1
  32   14   17 1
  33   14   36 1
  34   15   16 1
  35   15   37 1
  36   15   38 1
  37   16   24 1
  38   16   39 1
  39   18   19 ar
  40   18   40 1
  41   19   20 ar
  42   19   41 1
  43   20   21 ar
  44   20   42 1
  45   21   22 ar
  46   21   43 1
  47   22   44 1
  48   24   45 1
  49   24   46 1
  50   24   47 1

#	End of record

