#	Name: ASD01208947
#	Creating user name:	WinNT
#	Creation time:	15. 06. 2019 19:10

#	Modifying user name:	WinNT
#	Modification time:	15. 06. 2019 19:10

#	Program:	/corina/corina34_cracker 3.40 0067  02.08.2006

@<TRIPOS>MOLECULE
ASD01208947
  54   58    0    0    0
SMALL
NO_CHARGES


@<TRIPOS>ATOM
   1 C1            -2.3141     1.6147    -0.8376 C.3     
   2 C2            -2.2204     0.0994    -1.0416 C.3     
   3 C3            -1.4493    -0.1839    -2.3345 C.3     
   4 C4            -2.1499     0.5171    -3.5013 C.3     
   5 C5            -2.9813     2.2462    -2.0623 C.3     
   6 C6            -1.4844    -0.5317     0.1420 C.3     
   7 C7            -1.5304    -2.0559     0.0171 C.3     
   8 C8            -0.7065    -2.6752     1.1166 C.2     
   9 O9            -1.2485    -3.3112     1.9956 O.2     
  10 N10           -2.9176    -2.5135     0.1294 N.pl3   
  11 C11           -3.6148    -3.2082    -0.8233 C.ar    
  12 C12           -4.9017    -3.4363    -0.2912 C.ar    
  13 C13           -4.9252    -2.8532     0.9947 C.2     
  14 N14           -3.7598    -2.3220     1.2323 N.2     
  15 N15            0.6325    -2.5222     1.1230 N.am    
  16 C16           -3.3230    -3.6861    -2.0959 C.ar    
  17 N17           -4.2362    -4.3381    -2.7841 N.ar    
  18 C18           -5.4514    -4.5680    -2.3132 C.ar    
  19 C19           -5.8294    -4.1377    -1.0744 C.ar    
  20 C20            1.4025    -3.1748     2.0802 C.2     
  21 S21            3.1557    -3.0771     2.2207 S.3     
  22 C22            3.1013    -4.1617     3.6088 C.2     
  23 C23            1.8268    -4.4876     3.8347 C.2     
  24 N24            0.9433    -3.9484     3.0155 N.2     
  25 O25           -2.2313     1.9185    -3.2337 O.3     
  26 F26            4.1664    -4.5900     4.3212 F       
  27 C27           -7.2004    -5.5599     0.9475 C.3     
  28 C28           -8.4455    -6.1246     1.6343 C.3     
  29 C29           -7.5693    -7.0342     0.7707 C.3     
  30 S30           -7.4535    -4.4573    -0.4705 S.o2    
  31 O31           -7.9226    -3.1877    -0.0375 O.2     
  32 O32           -8.0925    -5.1508    -1.5336 O.2     
  33 H33           -2.9088     1.8265     0.0509 H       
  34 H34           -1.3132     2.0282    -0.7143 H       
  35 H35           -3.2232    -0.3213    -1.1154 H       
  36 H36           -0.4309     0.1933    -2.2414 H       
  37 H37           -1.4256    -1.2584    -2.5164 H       
  38 H38           -1.5818     0.3543    -4.4171 H       
  39 H39           -3.1544     0.1107    -3.6193 H       
  40 H40           -3.9966     1.8624    -2.1615 H       
  41 H41           -3.0120     3.3291    -1.9415 H       
  42 H42           -0.4466    -0.1985     0.1441 H       
  43 H43           -1.9652    -0.2288     1.0722 H       
  44 H44           -1.1269    -2.3535    -0.9508 H       
  45 H45           -5.7677    -2.8518     1.6704 H       
  46 H46            1.0593    -1.9570     0.4603 H       
  47 H47           -2.3440    -3.5216    -2.5213 H       
  48 H48           -6.1600    -5.1087    -2.9230 H       
  49 H49            1.5364    -5.1470     4.6393 H       
  50 H50           -6.3406    -5.3277     1.5759 H       
  51 H51           -8.4047    -6.2644     2.7146 H       
  52 H52           -9.4167    -5.8336     1.2341 H       
  53 H53           -7.9641    -7.3416    -0.1977 H       
  54 H54           -6.9520    -7.7723     1.2827 H       
@<TRIPOS>BOND
   1    1    2 1
   2    1    5 1
   3    1   33 1
   4    1   34 1
   5    2    3 1
   6    2    6 1
   7    2   35 1
   8    3    4 1
   9    3   36 1
  10    3   37 1
  11    4   25 1
  12    4   38 1
  13    4   39 1
  14    5   25 1
  15    5   40 1
  16    5   41 1
  17    6    7 1
  18    6   42 1
  19    6   43 1
  20    7   10 1
  21    7    8 1
  22    7   44 1
  23    8    9 2
  24    8   15 am
  25   10   11 1
  26   10   14 1
  27   11   12 ar
  28   11   16 ar
  29   12   13 1
  30   12   19 ar
  31   13   14 2
  32   13   45 1
  33   15   20 1
  34   15   46 1
  35   16   17 ar
  36   16   47 1
  37   17   18 ar
  38   18   19 ar
  39   18   48 1
  40   19   30 1
  41   20   21 1
  42   20   24 2
  43   21   22 1
  44   22   23 2
  45   22   26 1
  46   23   24 1
  47   23   49 1
  48   27   28 1
  49   27   30 1
  50   27   29 1
  51   27   50 1
  52   28   29 1
  53   28   51 1
  54   28   52 1
  55   29   53 1
  56   29   54 1
  57   30   31 2
  58   30   32 2

#	End of record

