#	Name: ASD01120202
#	Creating user name:	WinNT
#	Creation time:	15. 06. 2019 18:59

#	Modifying user name:	WinNT
#	Modification time:	15. 06. 2019 18:59

#	Program:	/corina/corina34_cracker 3.40 0067  02.08.2006

@<TRIPOS>MOLECULE
ASD01120202
  36   39    0    0    0
SMALL
NO_CHARGES


@<TRIPOS>ATOM
   1 C1            -0.0167     1.3828     0.0096 C.ar    
   2 C2             0.0021    -0.0041     0.0020 C.ar    
   3 C3            -1.1785    -0.7198     0.0090 C.ar    
   4 C4            -2.3914    -0.0514     0.0242 C.ar    
   5 C5            -2.4156     1.3515     0.0324 C.ar    
   6 C6            -1.2159     2.0636     0.0305 C.ar    
   7 O7            -3.6828    -0.4556     0.0344 O.3     
   8 C8            -4.4648     0.6381     0.0482 C.2     
   9 N9            -3.7266     1.7186     0.0472 N.2     
  10 Cl10           1.4775     2.2664     0.0001 Cl      
  11 N11           -5.8411     0.6234     0.0614 N.am    
  12 S12           -6.6843     2.0485     0.0777 S.o2    
  13 O13           -8.0618     1.7001     0.0544 O.2     
  14 O14           -6.1020     2.8477     1.0983 O.2     
  15 C15           -6.3526     2.8683    -1.4462 C.ar    
  16 C16           -7.1632     2.6382    -2.5432 C.ar    
  17 C17           -6.9076     3.2774    -3.7395 C.ar    
  18 C18           -5.8310     4.1560    -3.8408 C.ar    
  19 C19           -5.0180     4.3844    -2.7326 C.ar    
  20 C20           -5.2858     3.7439    -1.5397 C.ar    
  21 O21           -5.6694     5.5165    -7.2060 O.3     
  22 C22           -4.6092     6.1552    -6.6884 C.2     
  23 C23           -4.4669     5.7946    -5.4019 C.2     
  24 C24           -5.5510     4.8458    -5.1248 C.2     
  25 C25           -6.2452     4.7290    -6.2860 C.2     
  26 H26            0.9466    -0.5276    -0.0098 H       
  27 H27           -1.1563    -1.7995     0.0023 H       
  28 H28           -1.2263     3.1436     0.0371 H       
  29 H29           -6.3171    -0.2218     0.0612 H       
  30 H30           -7.9974     1.9570    -2.4635 H       
  31 H31           -7.5407     3.0965    -4.5955 H       
  32 H32           -4.1820     5.0642    -2.8059 H       
  33 H33           -4.6563     3.9201    -0.6801 H       
  34 H34           -3.9728     6.8472    -7.2201 H       
  35 H35           -3.7082     6.1339    -4.7121 H       
  36 H36           -7.1146     4.1076    -6.4420 H       
@<TRIPOS>BOND
   1    1    2 ar
   2    1   10 1
   3    1    6 ar
   4    2    3 ar
   5    2   26 1
   6    3    4 ar
   7    3   27 1
   8    4    5 ar
   9    4    7 1
  10    5    6 ar
  11    5    9 1
  12    6   28 1
  13    7    8 1
  14    8    9 2
  15    8   11 1
  16   11   12 am
  17   11   29 1
  18   12   13 2
  19   12   14 2
  20   12   15 1
  21   15   16 ar
  22   15   20 ar
  23   16   17 ar
  24   16   30 1
  25   17   18 ar
  26   17   31 1
  27   18   19 ar
  28   18   24 1
  29   19   20 ar
  30   19   32 1
  31   20   33 1
  32   21   22 1
  33   21   25 1
  34   22   23 2
  35   22   34 1
  36   23   24 1
  37   23   35 1
  38   24   25 2
  39   25   36 1

#	End of record

