#	Name: ASD09740126
#	Creating user name:	WinNT
#	Creation time:	15. 06. 2019 21:22

#	Modifying user name:	WinNT
#	Modification time:	15. 06. 2019 21:22

#	Program:	/corina/corina34_cracker 3.40 0067  02.08.2006

@<TRIPOS>MOLECULE
ASD09740126
  41   44    0    0    0
SMALL
NO_CHARGES


@<TRIPOS>ATOM
   1 N1             0.3396     1.3643     0.0354 N.2     
   2 O2             0.2647     0.1552     0.0916 O.3     
   3 C3             1.5805     1.7353    -0.1475 C.2     
   4 N4             2.3312     0.6160    -0.2071 N.2     
   5 C5             1.4847    -0.3854    -0.0538 C.2     
   6 C6             1.8166    -1.8249    -0.0438 C.ar    
   7 C7             2.0723     3.1316    -0.2676 C.ar    
   8 C8             3.4314     3.3993    -0.4631 C.ar    
   9 C9             3.8504     4.7083    -0.5704 C.ar    
  10 N10            2.9896     5.7057    -0.4908 N.ar    
  11 C11            1.6949     5.4993    -0.3063 C.ar    
  12 C12            1.1911     4.2087    -0.1941 C.ar    
  13 C13            0.8062    -2.7740     0.1297 C.ar    
  14 C14            2.4396    -4.5266    -0.0244 C.ar    
  15 C15            3.4483    -3.5801    -0.2039 C.ar    
  16 C16            3.1400    -2.2381    -0.2134 C.ar    
  17 C17            1.1166    -4.1151     0.1390 C.ar    
  18 C18            2.7728    -5.9714    -0.0143 C.ar    
  19 C19            2.1801    -6.8326    -0.9364 C.ar    
  20 C20            3.6841    -6.4728     0.9138 C.ar    
  21 C21            3.9907    -7.8183     0.9182 C.ar    
  22 C22            3.3959    -8.6690     0.0038 C.ar    
  23 C23            2.4944    -8.1763    -0.9226 C.ar    
  24 N24            0.8295     6.5847    -0.2289 N.pl3   
  25 C25            0.0269    -5.1391     0.3261 C.3     
  26 F26           -1.1775    -4.4903     0.6188 F       
  27 F27           -0.1188    -5.8850    -0.8485 F       
  28 F28            0.3654    -5.9926     1.3816 F       
  29 H29            4.1439     2.5903    -0.5290 H       
  30 H30            4.8984     4.9208    -0.7215 H       
  31 H31            0.1344     4.0435    -0.0439 H       
  32 H32           -0.2179    -2.4557     0.2569 H       
  33 H33            4.4715    -3.8998    -0.3350 H       
  34 H34            3.9211    -1.5054    -0.3524 H       
  35 H35            1.4762    -6.4490    -1.6601 H       
  36 H36            4.1497    -5.8095     1.6277 H       
  37 H37            4.6966    -8.2079     1.6367 H       
  38 H38            3.6390    -9.7212     0.0107 H       
  39 H39            2.0327    -8.8451    -1.6339 H       
  40 H40            1.1752     7.4873    -0.3100 H       
  41 H41           -0.1200     6.4393    -0.0938 H       
@<TRIPOS>BOND
   1    1    2 1
   2    1    3 2
   3    2    5 1
   4    3    4 1
   5    3    7 1
   6    4    5 2
   7    5    6 1
   8    6   13 ar
   9    6   16 ar
  10    7    8 ar
  11    7   12 ar
  12    8    9 ar
  13    8   29 1
  14    9   10 ar
  15    9   30 1
  16   10   11 ar
  17   11   12 ar
  18   11   24 1
  19   12   31 1
  20   13   17 ar
  21   13   32 1
  22   14   15 ar
  23   14   18 1
  24   14   17 ar
  25   15   16 ar
  26   15   33 1
  27   16   34 1
  28   17   25 1
  29   18   19 ar
  30   18   20 ar
  31   19   23 ar
  32   19   35 1
  33   20   21 ar
  34   20   36 1
  35   21   22 ar
  36   21   37 1
  37   22   23 ar
  38   22   38 1
  39   23   39 1
  40   24   40 1
  41   24   41 1
  42   25   26 1
  43   25   27 1
  44   25   28 1

#	End of record

