#	Name: ASD01884272
#	Creating user name:	WinNT
#	Creation time:	15. 06. 2019 19:47

#	Modifying user name:	WinNT
#	Modification time:	15. 06. 2019 19:47

#	Program:	/corina/corina34_cracker 3.40 0067  02.08.2006

@<TRIPOS>MOLECULE
ASD01884272
  24   25    0    0    0
SMALL
NO_CHARGES


@<TRIPOS>ATOM
   1 N1             1.8188    -1.5634     3.5344 N.ar    
   2 C2             1.3993    -2.1643     2.4260 C.ar    
   3 C3             2.7884    -0.6727     3.5154 C.ar    
   4 C4             3.4127    -0.3254     2.3321 C.ar    
   5 C5             3.0068    -0.9292     1.1441 C.ar    
   6 C6             1.9800    -1.8670     1.1958 C.ar    
   7 O7             3.5991    -0.6112    -0.0351 O.3     
   8 C8             4.6657     0.2281    -0.0067 C.ar    
   9 C9             5.9475    -0.2857     0.1512 C.ar    
  10 C10            4.4731     1.5975    -0.1411 C.ar    
  11 C11            5.5536     2.4533    -0.1128 C.ar    
  12 C12            6.8448     1.9402     0.0517 C.ar    
  13 C13            7.0329     0.5615     0.1812 C.ar    
  14 Cl14           5.3126     4.1642    -0.2813 Cl      
  15 C15            7.9706     2.8247     0.0818 C.1     
  16 N16            8.8638     3.5263     0.1057 N.1     
  17 C17            0.3412    -3.1266     2.4974 C.1     
  18 N18           -0.4982    -3.8899     2.5540 N.1     
  19 H19            3.1004    -0.2062     4.4382 H       
  20 H20            4.2066     0.4067     2.3284 H       
  21 H21            1.6380    -2.3558     0.2956 H       
  22 H22            6.0925    -1.3513     0.2509 H       
  23 H23            3.4758     1.9920    -0.2683 H       
  24 H24            8.0279     0.1611     0.3083 H       
@<TRIPOS>BOND
   1    1    2 ar
   2    1    3 ar
   3    2   17 1
   4    2    6 ar
   5    3    4 ar
   6    3   19 1
   7    4    5 ar
   8    4   20 1
   9    5    6 ar
  10    5    7 1
  11    6   21 1
  12    7    8 1
  13    8    9 ar
  14    8   10 ar
  15    9   13 ar
  16    9   22 1
  17   10   11 ar
  18   10   23 1
  19   11   12 ar
  20   11   14 1
  21   12   13 ar
  22   12   15 1
  23   13   24 1
  24   15   16 3
  25   17   18 3

#	End of record

