#	Name: ASD01418011
#	Creating user name:	WinNT
#	Creation time:	15. 06. 2019 19:20

#	Modifying user name:	WinNT
#	Modification time:	15. 06. 2019 19:20

#	Program:	/corina/corina34_cracker 3.40 0067  02.08.2006

@<TRIPOS>MOLECULE
ASD01418011
  41   43    0    0    0
SMALL
NO_CHARGES


@<TRIPOS>ATOM
   1 C1             0.2957     1.0688    -0.0875 C.2     
   2 C2             0.1563    -0.2995    -0.1218 C.2     
   3 C3             1.3416    -0.9881    -0.2345 C.2     
   4 C4             2.4541    -0.2037    -0.2934 C.2     
   5 S5             1.9983     1.4916    -0.2031 S.3     
   6 C6            -0.7678     1.9934     0.0183 C.2     
   7 O7            -1.9160     1.5951     0.0874 O.2     
   8 O8            -0.5103     3.3184     0.0427 O.3     
   9 N9            -1.0807    -0.9340    -0.0479 N.am    
  10 S10           -1.2251    -2.3759     0.7537 S.o2    
  11 O11           -2.6109    -2.6901     0.7678 O.2     
  12 O12           -0.2379    -3.2395     0.2070 O.2     
  13 C13           -0.7627    -2.0896     2.4296 C.ar    
  14 C14           -1.5299    -1.2601     3.2264 C.ar    
  15 C15           -1.1671    -1.0354     4.5410 C.ar    
  16 C16           -0.0373    -1.6406     5.0594 C.ar    
  17 C17            0.7292    -2.4705     4.2632 C.ar    
  18 C18            0.3639    -2.6987     2.9494 C.ar    
  19 C19           -2.7614    -0.6004     2.6613 C.3     
  20 C20            3.8382    -0.7038    -0.4150 C.ar    
  21 C21            4.9048     0.1977    -0.4665 C.ar    
  22 C22            6.1900    -0.2664    -0.5794 C.ar    
  23 C23            6.4335    -1.6416    -0.6426 C.ar    
  24 C24            5.3663    -2.5432    -0.5905 C.ar    
  25 C25            4.0817    -2.0788    -0.4727 C.ar    
  26 C26            7.7756    -2.1265    -0.7610 C.1     
  27 N27            8.8404    -2.5113    -0.8549 N.1     
  28 H28            1.3870    -2.0664    -0.2730 H       
  29 H29           -1.3002     3.8713     0.1170 H       
  30 H30           -1.8580    -0.5315    -0.4658 H       
  31 H31           -1.7661    -0.3869     5.1631 H       
  32 H32            0.2465    -1.4645     6.0865 H       
  33 H33            1.6119    -2.9430     4.6681 H       
  34 H34            0.9607    -3.3502     2.3283 H       
  35 H35           -3.6309    -1.2290     2.8535 H       
  36 H36           -2.9033     0.3708     3.1353 H       
  37 H37           -2.6408    -0.4660     1.5863 H       
  38 H38            4.7167     1.2601    -0.4177 H       
  39 H39            7.0142     0.4304    -0.6199 H       
  40 H40            5.5541    -3.6057    -0.6396 H       
  41 H41            3.2576    -2.7754    -0.4288 H       
@<TRIPOS>BOND
   1    1    2 2
   2    1    5 1
   3    1    6 1
   4    2    3 1
   5    2    9 1
   6    3    4 2
   7    3   28 1
   8    4    5 1
   9    4   20 1
  10    6    7 2
  11    6    8 1
  12    8   29 1
  13    9   10 am
  14    9   30 1
  15   10   11 2
  16   10   12 2
  17   10   13 1
  18   13   14 ar
  19   13   18 ar
  20   14   15 ar
  21   14   19 1
  22   15   16 ar
  23   15   31 1
  24   16   17 ar
  25   16   32 1
  26   17   18 ar
  27   17   33 1
  28   18   34 1
  29   19   35 1
  30   19   36 1
  31   19   37 1
  32   20   21 ar
  33   20   25 ar
  34   21   22 ar
  35   21   38 1
  36   22   23 ar
  37   22   39 1
  38   23   24 ar
  39   23   26 1
  40   24   25 ar
  41   24   40 1
  42   25   41 1
  43   26   27 3

#	End of record

