#	Name: ASD06620011
#	Creating user name:	WinNT
#	Creation time:	15. 06. 2019 21:07

#	Modifying user name:	WinNT
#	Modification time:	15. 06. 2019 21:07

#	Program:	/corina/corina34_cracker 3.40 0067  02.08.2006

@<TRIPOS>MOLECULE
ASD06620011
  51   55    0    0    0
SMALL
NO_CHARGES


@<TRIPOS>ATOM
   1 C1            -0.7765    -3.5006    -0.5162 C.ar    
   2 C2            -0.3196    -2.2181    -0.2684 C.ar    
   3 C3             1.0601    -1.9852    -0.2201 C.ar    
   4 C4             1.9214    -3.0559    -0.4236 C.ar    
   5 C5             1.3848    -4.3048    -0.6651 C.ar    
   6 N6             0.0778    -4.4891    -0.7040 N.ar    
   7 C7             0.0173    -0.0635     0.1466 C.2     
   8 N8            -0.9394    -0.9944    -0.0349 N.am    
   9 N9             1.2326    -0.6350     0.0399 N.am    
  10 O10           -0.1854     1.1150     0.3719 O.2     
  11 C11            2.5183     0.0539     0.1764 C.3     
  12 C12            2.8168     1.1928    -0.8006 C.3     
  13 C13            2.4945     1.5045     0.6622 C.3     
  14 C14           -2.3848    -0.7586     0.0062 C.3     
  15 C15           -3.6507    -0.9623    -3.3863 C.2     
  16 C16           -4.1149    -1.5156    -4.5959 C.2     
  17 C17           -4.4658    -0.6862    -5.6172 C.2     
  18 C18           -4.3601     0.7058    -5.4506 C.2     
  19 C19           -3.9137     1.2196    -4.2858 C.2     
  20 N20           -3.5588     0.3991    -3.2544 N.pl3   
  21 N21           -3.2433    -1.5130    -2.2512 N.2     
  22 C22           -2.8994    -0.5481    -1.3945 C.2     
  23 C23           -3.0855     0.6479    -1.9940 C.2     
  24 C24           -2.8195     2.0025    -1.3896 C.3     
  25 C25           -4.1198     2.5695    -0.8165 C.3     
  26 C26           -3.8496     3.9448    -0.2029 C.3     
  27 C27           -5.1499     4.5119     0.3703 C.3     
  28 O28           -4.8976     5.7964     0.9434 O.3     
  29 Cl29          -5.0400    -1.3442    -7.1175 Cl      
  30 H30           -1.8383    -3.6948    -0.5516 H       
  31 H31            2.9916    -2.9138    -0.3938 H       
  32 H32            2.0447    -5.1447    -0.8251 H       
  33 H33            3.3544    -0.5696     0.4932 H       
  34 H34            3.8494     1.3189    -1.1263 H       
  35 H35            2.0566     1.4296    -1.5449 H       
  36 H36            1.5222     1.9464     0.8803 H       
  37 H37            3.3150     1.8356     1.2989 H       
  38 H38           -2.8812    -1.6217     0.4498 H       
  39 H39           -2.5915     0.1276     0.6063 H       
  40 H40           -4.1914    -2.5866    -4.7121 H       
  41 H41           -4.6375     1.3666    -6.2586 H       
  42 H42           -3.8360     2.2904    -4.1684 H       
  43 H43           -2.0825     1.9062    -0.5923 H       
  44 H44           -2.4376     2.6746    -2.1582 H       
  45 H45           -4.8567     2.6658    -1.6138 H       
  46 H46           -4.5016     1.8975    -0.0480 H       
  47 H47           -3.1126     3.8486     0.5944 H       
  48 H48           -3.4678     4.6169    -0.9714 H       
  49 H49           -5.8869     4.6082    -0.4270 H       
  50 H50           -5.5318     3.8398     1.1388 H       
  51 H51           -5.6797     6.2165     1.3269 H       
@<TRIPOS>BOND
   1    1    2 ar
   2    1    6 ar
   3    1   30 1
   4    2    3 ar
   5    2    8 1
   6    3    4 ar
   7    3    9 1
   8    4    5 ar
   9    4   31 1
  10    5    6 ar
  11    5   32 1
  12    7    8 am
  13    7    9 am
  14    7   10 2
  15    8   14 1
  16    9   11 1
  17   11   12 1
  18   11   13 1
  19   11   33 1
  20   12   13 1
  21   12   34 1
  22   12   35 1
  23   13   36 1
  24   13   37 1
  25   14   22 1
  26   14   38 1
  27   14   39 1
  28   15   16 1
  29   15   20 1
  30   15   21 2
  31   16   17 2
  32   16   40 1
  33   17   18 1
  34   17   29 1
  35   18   19 2
  36   18   41 1
  37   19   20 1
  38   19   42 1
  39   20   23 1
  40   21   22 1
  41   22   23 2
  42   23   24 1
  43   24   25 1
  44   24   43 1
  45   24   44 1
  46   25   26 1
  47   25   45 1
  48   25   46 1
  49   26   27 1
  50   26   47 1
  51   26   48 1
  52   27   28 1
  53   27   49 1
  54   27   50 1
  55   28   51 1

#	End of record

