#	Name: ASD03731497
#	Creating user name:	WinNT
#	Creation time:	15. 06. 2019 20:45

#	Modifying user name:	WinNT
#	Modification time:	15. 06. 2019 20:45

#	Program:	/corina/corina34_cracker 3.40 0067  02.08.2006

@<TRIPOS>MOLECULE
ASD03731497
  55   60    0    0    0
SMALL
NO_CHARGES


@<TRIPOS>ATOM
   1 C1            -0.0184     1.5028     0.0103 C.2     
   2 C2             0.0021    -0.0041     0.0020 C.3     
   3 O3             1.0236     2.1234     0.0037 O.2     
   4 N4            -1.1946     2.1607     0.0195 N.am    
   5 C5             1.4295    -0.4870    -0.0142 C.2     
   6 C6             2.1683    -0.7393     1.0674 C.2     
   7 C7             3.4558    -1.1749     0.8057 C.2     
   8 C8             3.7627    -1.2764    -0.4885 C.2     
   9 S9             2.3737    -0.8115    -1.4622 S.3     
  10 C10           -1.2145     3.6256     0.0275 C.3     
  11 C11           -2.6637     4.1159     0.0371 C.3     
  12 C12           -2.6845     5.6457     0.0455 C.3     
  13 O13           -8.8979     2.7393     2.1988 O.3     
  14 C14          -10.3150     2.7928     2.4481 C.3     
  15 O15          -10.5201     4.1171     2.9744 O.3     
  16 C16           -9.5165     4.8794     2.4484 C.ar    
  17 C17           -8.5189     4.0315     1.9726 C.ar    
  18 C18           -9.3717     6.2503     2.3343 C.ar    
  19 C19           -8.2322     6.7925     1.7475 C.ar    
  20 C20           -7.2388     5.9357     1.2835 C.ar    
  21 C21           -7.3830     4.5682     1.3902 C.ar    
  22 O22           -7.9033     8.0972     1.5243 O.3     
  23 C23           -6.1403     6.8084     0.7378 C.3     
  24 C24           -6.4846     8.1968     1.2939 C.3     
  25 N25           -4.0722     6.1152     0.0546 N.am    
  26 C26           -4.7795     6.3508     1.1777 C.2     
  27 C27           -6.0970     6.8011    -0.7615 C.ar    
  28 C28           -7.0126     7.1140    -1.7413 C.ar    
  29 C29           -6.6642     7.0046    -3.0758 C.ar    
  30 C30           -5.3947     6.5797    -3.4231 C.ar    
  31 C31           -4.4744     6.2642    -2.4454 C.ar    
  32 C32           -4.8162     6.3718    -1.0995 C.ar    
  33 O33           -4.3925     6.2192     2.3196 O.2     
  34 H34           -0.4983    -0.3791     0.8948 H       
  35 H35           -0.5153    -0.3696    -0.8850 H       
  36 H36           -2.0280     1.6644     0.0207 H       
  37 H37            1.7906    -0.6129     2.0713 H       
  38 H38            4.1588    -1.4141     1.5899 H       
  39 H39            4.7169    -1.5983    -0.8787 H       
  40 H40           -0.7014     3.9910     0.9171 H       
  41 H41           -0.7098     4.0007    -0.8628 H       
  42 H42           -3.1768     3.7505    -0.8525 H       
  43 H43           -3.1683     3.7408     0.9274 H       
  44 H44           -2.1714     6.0112     0.9350 H       
  45 H45           -2.1798     6.0209    -0.8449 H       
  46 H46          -10.8722     2.6586     1.5209 H       
  47 H47          -10.6034     2.0402     3.1818 H       
  48 H48          -10.1480     6.9043     2.7032 H       
  49 H49           -6.6078     3.9142     1.0188 H       
  50 H50           -6.2650     8.9729     0.5607 H       
  51 H51           -5.9530     8.3828     2.2271 H       
  52 H52           -8.0034     7.4455    -1.4678 H       
  53 H53           -7.3818     7.2508    -3.8445 H       
  54 H54           -5.1228     6.4942    -4.4648 H       
  55 H55           -3.4852     5.9325    -2.7244 H       
@<TRIPOS>BOND
   1    1    2 1
   2    1    3 2
   3    1    4 am
   4    2    5 1
   5    2   34 1
   6    2   35 1
   7    4   10 1
   8    4   36 1
   9    5    6 2
  10    5    9 1
  11    6    7 1
  12    6   37 1
  13    7    8 2
  14    7   38 1
  15    8    9 1
  16    8   39 1
  17   10   11 1
  18   10   40 1
  19   10   41 1
  20   11   12 1
  21   11   42 1
  22   11   43 1
  23   12   25 1
  24   12   44 1
  25   12   45 1
  26   13   14 1
  27   13   17 1
  28   14   15 1
  29   14   46 1
  30   14   47 1
  31   15   16 1
  32   16   17 ar
  33   16   18 ar
  34   17   21 ar
  35   18   19 ar
  36   18   48 1
  37   19   20 ar
  38   19   22 1
  39   20   21 ar
  40   20   23 1
  41   21   49 1
  42   22   24 1
  43   23   24 1
  44   23   26 1
  45   23   27 1
  46   24   50 1
  47   24   51 1
  48   25   26 am
  49   25   32 1
  50   26   33 2
  51   27   28 ar
  52   27   32 ar
  53   28   29 ar
  54   28   52 1
  55   29   30 ar
  56   29   53 1
  57   30   31 ar
  58   30   54 1
  59   31   32 ar
  60   31   55 1

#	End of record

