#	Name: ASD09610074
#	Creating user name:	WinNT
#	Creation time:	15. 06. 2019 21:22

#	Modifying user name:	WinNT
#	Modification time:	15. 06. 2019 21:22

#	Program:	/corina/corina34_cracker 3.40 0067  02.08.2006

@<TRIPOS>MOLECULE
ASD09610074
  44   46    0    0    0
SMALL
NO_CHARGES


@<TRIPOS>ATOM
   1 N1            -0.0194     1.4449    -0.1974 N.pl3   
   2 N2            -0.0092     0.2305    -0.8924 N.2     
   3 C3             1.2278    -0.1164    -1.1189 C.2     
   4 C4             2.0682     0.8776    -0.5692 C.2     
   5 C5             1.2505     1.8351    -0.0029 C.2     
   6 C6             3.5420     0.8897    -0.5951 C.2     
   7 O7             4.1483    -0.0195    -1.1286 O.2     
   8 N8             4.2176     1.9085    -0.0276 N.am    
   9 C9             6.3598     3.0423    -0.0589 C.ar    
  10 C10            5.6112     1.8640     0.0518 C.ar    
  11 C11            6.2596     0.6525     0.2409 C.ar    
  12 C12            7.6385     0.6106     0.3196 C.ar    
  13 C13            8.3805     1.7736     0.2110 C.ar    
  14 C14            7.7493     2.9868     0.0231 C.ar    
  15 C15            5.6775     4.3412    -0.2671 C.ar    
  16 C16            5.9921     5.4321     0.5439 C.ar    
  17 C17            5.3586     6.6391     0.3510 C.ar    
  18 C18            4.4012     6.7717    -0.6571 C.ar    
  19 C19            4.0871     5.6794    -1.4688 C.ar    
  20 C20            4.7249     4.4743    -1.2779 C.ar    
  21 C21            3.7415     8.0267    -0.8581 C.1     
  22 C22            3.2007     9.0556    -1.0228 C.1     
  23 C23            2.5226    10.3457    -1.2294 C.3     
  24 C24           -1.2144     2.1714     0.2390 C.3     
  25 C25            1.6810    -1.3597    -1.8400 C.3     
  26 F26            0.7193    -1.7258    -2.7877 F       
  27 F27            2.8976    -1.1084    -2.4832 F       
  28 H28            1.5731     2.7330     0.5031 H       
  29 H29            3.7359     2.6727     0.3258 H       
  30 H30            5.6862    -0.2587     0.3271 H       
  31 H31            8.1398    -0.3347     0.4669 H       
  32 H32            9.4578     1.7320     0.2740 H       
  33 H33            8.3324     3.8919    -0.0619 H       
  34 H34            6.7325     5.3295     1.3234 H       
  35 H35            5.6018     7.4832     0.9793 H       
  36 H36            3.3468     5.7811    -2.2486 H       
  37 H37            4.4849     3.6306    -1.9079 H       
  38 H38            1.8151    10.2563    -2.0537 H       
  39 H39            1.9887    10.6251    -0.3210 H       
  40 H40            3.2618    11.1108    -1.4663 H       
  41 H41           -1.4951     1.8416     1.2392 H       
  42 H42           -1.0040     3.2408     0.2547 H       
  43 H43           -2.0333     1.9724    -0.4524 H       
  44 H44            1.8101    -2.1695    -1.1219 H       
@<TRIPOS>BOND
   1    1    2 1
   2    1    5 1
   3    1   24 1
   4    2    3 2
   5    3    4 1
   6    3   25 1
   7    4    5 2
   8    4    6 1
   9    5   28 1
  10    6    7 2
  11    6    8 am
  12    8   10 1
  13    8   29 1
  14    9   10 ar
  15    9   14 ar
  16    9   15 1
  17   10   11 ar
  18   11   12 ar
  19   11   30 1
  20   12   13 ar
  21   12   31 1
  22   13   14 ar
  23   13   32 1
  24   14   33 1
  25   15   16 ar
  26   15   20 ar
  27   16   17 ar
  28   16   34 1
  29   17   18 ar
  30   17   35 1
  31   18   19 ar
  32   18   21 1
  33   19   20 ar
  34   19   36 1
  35   20   37 1
  36   21   22 3
  37   22   23 1
  38   23   38 1
  39   23   39 1
  40   23   40 1
  41   24   41 1
  42   24   42 1
  43   24   43 1
  44   25   26 1
  45   25   27 1
  46   25   44 1

#	End of record

