#	Name: ASD01151035
#	Creating user name:	WinNT
#	Creation time:	15. 06. 2019 19:05

#	Modifying user name:	WinNT
#	Modification time:	15. 06. 2019 19:05

#	Program:	/corina/corina34_cracker 3.40 0067  02.08.2006

@<TRIPOS>MOLECULE
ASD01151035
  27   28    0    0    0
SMALL
NO_CHARGES


@<TRIPOS>ATOM
   1 O1             0.0021    -0.0041     0.0020 O.2     
   2 C2            -0.0143     1.2034     0.0087 C.2     
   3 C3             1.1686     2.1659     0.0025 C.3     
   4 C4             0.7359     3.3099     0.9434 C.3     
   5 C5            -0.8041     3.2889     0.9576 C.3     
   6 C6            -1.2229     2.1334     0.0184 C.3     
   7 C7            -1.5107     2.6644    -1.3873 C.3     
   8 C8            -0.0175     2.9459     2.2243 C.3     
   9 C9             1.5168     4.6231     0.8638 C.3     
  10 C10            3.0167     4.3232     0.8278 C.3     
  11 C11            1.1171     5.3781    -0.4055 C.3     
  12 H12            2.0620     1.6739     0.3869 H       
  13 H13            1.3450     2.5463    -1.0036 H       
  14 H14           -1.3867     4.2090     0.9114 H       
  15 H15           -2.0953     1.6156     0.4171 H       
  16 H16           -0.6145     3.1390    -1.7870 H       
  17 H17           -1.8039     1.8381    -2.0349 H       
  18 H18           -2.3188     3.3945    -1.3415 H       
  19 H19           -0.0004     1.9021     2.5380 H       
  20 H20           -0.0201     3.6786     3.0313 H       
  21 H21            1.2894     5.2346     1.7371 H       
  22 H22            3.2441     3.7118    -0.0454 H       
  23 H23            3.5730     5.2588     0.7712 H       
  24 H24            3.3015     3.7854     1.7321 H       
  25 H25            0.0485     5.5918    -0.3799 H       
  26 H26            1.6734     6.3137    -0.4622 H       
  27 H27            1.3445     4.7667    -1.2787 H       
@<TRIPOS>BOND
   1    1    2 2
   2    2    3 1
   3    2    6 1
   4    3    4 1
   5    3   12 1
   6    3   13 1
   7    4    5 1
   8    4    9 1
   9    4    8 1
  10    5    6 1
  11    5    8 1
  12    5   14 1
  13    6    7 1
  14    6   15 1
  15    7   16 1
  16    7   17 1
  17    7   18 1
  18    8   19 1
  19    8   20 1
  20    9   10 1
  21    9   11 1
  22    9   21 1
  23   10   22 1
  24   10   23 1
  25   10   24 1
  26   11   25 1
  27   11   26 1
  28   11   27 1

#	End of record

