#	Name: ASD00170079
#	Creating user name:	WinNT
#	Creation time:	15. 06. 2019 18:31

#	Modifying user name:	WinNT
#	Modification time:	15. 06. 2019 18:31

#	Program:	/corina/corina34_cracker 3.40 0067  02.08.2006

@<TRIPOS>MOLECULE
ASD00170079
  40   42    0    0    0
SMALL
NO_CHARGES


@<TRIPOS>ATOM
   1 C1             0.0502     1.2487    -0.0628 C.2     
   2 C2            -0.0708    -0.1042     0.0388 C.2     
   3 C3            -1.4565    -0.5306     0.1154 C.2     
   4 C4            -2.3417     0.5171     0.0691 C.2     
   5 S5            -1.5307     2.0092    -0.0578 S.3     
   6 N6            -3.7128     0.3795     0.1243 N.pl3   
   7 C7             1.3318     1.9737    -0.1576 C.ar    
   8 C8             1.0800    -1.0343     0.0670 C.ar    
   9 C9             1.5107     2.9585    -1.1323 C.ar    
  10 C10            2.7113     3.6324    -1.2146 C.ar    
  11 C11            3.7372     3.3351    -0.3347 C.ar    
  12 C12            3.5672     2.3606     0.6329 C.ar    
  13 C13            2.3701     1.6826     0.7307 C.ar    
  14 C14           -1.8658    -1.9291     0.2298 C.2     
  15 O15           -2.0932    -2.6586    -0.8821 O.3     
  16 O16           -2.0014    -2.4354     1.3279 O.2     
  17 C17           -2.4904    -4.0186    -0.6959 C.3     
  18 C18           -2.7008    -4.6798    -2.0595 C.3     
  19 C19            1.3638    -1.7623     1.2231 C.ar    
  20 C20            2.4379    -2.6278     1.2436 C.ar    
  21 C21            3.2335    -2.7748     0.1200 C.ar    
  22 C22            2.9567    -2.0550    -1.0301 C.ar    
  23 C23            1.8819    -1.1909    -1.0642 C.ar    
  24 Cl24           4.5838    -3.8653     0.1533 Cl      
  25 H25           -4.1091    -0.5025     0.2011 H       
  26 H26           -4.2810     1.1648     0.0865 H       
  27 H27            0.7110     3.1913    -1.8198 H       
  28 H28            2.8512     4.3937    -1.9677 H       
  29 H29            4.6752     3.8660    -0.4038 H       
  30 H30            4.3723     2.1335     1.3160 H       
  31 H31            2.2387     0.9224     1.4866 H       
  32 H32           -1.7130    -4.5525    -0.1492 H       
  33 H33           -3.4208    -4.0510    -0.1289 H       
  34 H34           -3.0037    -5.7172    -1.9174 H       
  35 H35           -3.4781    -4.1459    -2.6061 H       
  36 H36           -1.7704    -4.6474    -2.6264 H       
  37 H37            0.7441    -1.6482     2.1002 H       
  38 H38            2.6587    -3.1915     2.1380 H       
  39 H39            3.5807    -2.1736    -1.9035 H       
  40 H40            1.6666    -0.6302    -1.9618 H       
@<TRIPOS>BOND
   1    1    2 2
   2    1    7 1
   3    1    5 1
   4    2    3 1
   5    2    8 1
   6    3    4 2
   7    3   14 1
   8    4    5 1
   9    4    6 1
  10    6   25 1
  11    6   26 1
  12    7    9 ar
  13    7   13 ar
  14    8   19 ar
  15    8   23 ar
  16    9   10 ar
  17    9   27 1
  18   10   11 ar
  19   10   28 1
  20   11   12 ar
  21   11   29 1
  22   12   13 ar
  23   12   30 1
  24   13   31 1
  25   14   15 1
  26   14   16 2
  27   15   17 1
  28   17   18 1
  29   17   32 1
  30   17   33 1
  31   18   34 1
  32   18   35 1
  33   18   36 1
  34   19   20 ar
  35   19   37 1
  36   20   21 ar
  37   20   38 1
  38   21   22 ar
  39   21   24 1
  40   22   23 ar
  41   22   39 1
  42   23   40 1

#	End of record

