#	Name: ASD01913635
#	Creating user name:	WinNT
#	Creation time:	15. 06. 2019 20:01

#	Modifying user name:	WinNT
#	Modification time:	15. 06. 2019 20:01

#	Program:	/corina/corina34_cracker 3.40 0067  02.08.2006

@<TRIPOS>MOLECULE
ASD01913635
  39   41    0    0    0
SMALL
NO_CHARGES


@<TRIPOS>ATOM
   1 C1            -0.0777     1.5129    -0.0056 C.ar    
   2 C2            -0.0764     0.1306     0.0079 C.ar    
   3 C3             1.1213    -0.5595     0.0131 C.ar    
   4 C4             2.3179     0.1328     0.0043 C.ar    
   5 C5             2.3166     1.5150    -0.0101 C.ar    
   6 C6             1.1189     2.2051    -0.0139 C.ar    
   7 C7             3.6210     2.2696    -0.0192 C.3     
   8 O8             4.0321     2.4941    -1.3693 O.3     
   9 C9             5.1947     3.1649    -1.5549 C.ar    
  10 N10            5.8862     3.5755    -0.5030 N.ar    
  11 C11            7.0210     4.2307    -0.6315 C.ar    
  12 C12            7.5374     4.5170    -1.8957 C.ar    
  13 C13            6.8290     4.0959    -3.0311 C.ar    
  14 C14            5.6475     3.4075    -2.8483 C.ar    
  15 C15            8.8094     5.2521    -2.0365 C.2     
  16 N16            9.4814     5.6523    -0.9389 N.am    
  17 O17            9.2511     5.4967    -3.1426 O.2     
  18 C18           10.7287     6.2741    -1.0698 C.ar    
  19 C19           11.6511     6.2115    -0.0310 C.ar    
  20 C20           12.8825     6.8269    -0.1648 C.ar    
  21 C21           13.1955     7.5034    -1.3294 C.ar    
  22 C22           12.2795     7.5672    -2.3634 C.ar    
  23 C23           11.0500     6.9497    -2.2392 C.ar    
  24 F24           11.3448     5.5512     1.1071 F       
  25 H25           -1.0135     2.0520    -0.0142 H       
  26 H26           -1.0112    -0.4102     0.0147 H       
  27 H27            1.1223    -1.6394     0.0243 H       
  28 H28            3.2537    -0.4064     0.0090 H       
  29 H29            1.1179     3.2850    -0.0255 H       
  30 H30            3.4903     3.2272     0.4848 H       
  31 H31            4.3817     1.6866     0.5000 H       
  32 H32            7.5570     4.5500     0.2501 H       
  33 H33            7.2015     4.3020    -4.0237 H       
  34 H34            5.0760     3.0682    -3.6995 H       
  35 H35            9.1008     5.5095    -0.0582 H       
  36 H36           13.6000     6.7792     0.6410 H       
  37 H37           14.1575     7.9835    -1.4316 H       
  38 H38           12.5273     8.0972    -3.2712 H       
  39 H39           10.3358     7.0001    -3.0478 H       
@<TRIPOS>BOND
   1    1    2 ar
   2    1    6 ar
   3    1   25 1
   4    2    3 ar
   5    2   26 1
   6    3    4 ar
   7    3   27 1
   8    4    5 ar
   9    4   28 1
  10    5    6 ar
  11    5    7 1
  12    6   29 1
  13    7    8 1
  14    7   30 1
  15    7   31 1
  16    8    9 1
  17    9   10 ar
  18    9   14 ar
  19   10   11 ar
  20   11   12 ar
  21   11   32 1
  22   12   13 ar
  23   12   15 1
  24   13   14 ar
  25   13   33 1
  26   14   34 1
  27   15   16 am
  28   15   17 2
  29   16   18 1
  30   16   35 1
  31   18   19 ar
  32   18   23 ar
  33   19   20 ar
  34   19   24 1
  35   20   21 ar
  36   20   36 1
  37   21   22 ar
  38   21   37 1
  39   22   23 ar
  40   22   38 1
  41   23   39 1

#	End of record

