#	Name: ASD02198462
#	Creating user name:	WinNT
#	Creation time:	15. 06. 2019 20:19

#	Modifying user name:	WinNT
#	Modification time:	15. 06. 2019 20:19

#	Program:	/corina/corina34_cracker 3.40 0067  02.08.2006

@<TRIPOS>MOLECULE
ASD02198462
  48   51    0    0    0
SMALL
NO_CHARGES


@<TRIPOS>ATOM
   1 C1            -0.0187     1.5277     0.0104 C.3     
   2 S2             1.8890     3.0919     1.1481 S.o2    
   3 N3             1.3658     2.0195    -0.0001 N.am    
   4 O4             3.0007     3.7735     0.5835 O.2     
   5 O5             0.7312     3.7597     1.6306 O.2     
   6 C6             2.5168     2.1474     2.4965 C.ar    
   7 C7             1.6543     1.3292     3.2470 C.ar    
   8 C8             2.1827     0.5787     4.3263 C.ar    
   9 C9             3.5519     0.6640     4.6263 C.ar    
  10 C10            4.3561     1.4669     3.8766 C.ar    
  11 C11            3.8394     2.2027     2.8118 C.ar    
  12 N12            0.3515     1.2514     2.9575 N.ar    
  13 C13           -0.4571     0.4905     3.6542 C.ar    
  14 C14           -0.0026    -0.2725     4.7277 C.ar    
  15 C15            1.3175    -0.2400     5.0765 C.ar    
  16 C16            0.0021    -0.0041     0.0020 C.3     
  17 C17            0.8335    -0.4924    -1.1864 C.3     
  18 C18            2.2724     0.0094    -1.0451 C.3     
  19 C19            2.2773     1.5413    -1.0485 C.3     
  20 C20            0.8279    -2.0221    -1.2181 C.3     
  21 C21            1.5424    -2.5015    -2.4553 C.ar    
  22 C22            2.9039    -2.7377    -2.4195 C.ar    
  23 C23            0.8352    -2.7106    -3.6245 C.ar    
  24 C24            1.4905    -3.1503    -4.7595 C.ar    
  25 C25            2.8531    -3.3806    -4.7253 C.ar    
  26 C26            3.5593    -3.1774    -3.5544 C.ar    
  27 H27           -0.5252     1.8813     0.9085 H       
  28 H28           -0.5423     1.8909    -0.8739 H       
  29 H29            3.9645     0.0962     5.4472 H       
  30 H30            5.4089     1.5322     4.1082 H       
  31 H31            4.4980     2.8322     2.2319 H       
  32 H32           -1.5035     0.4544     3.3892 H       
  33 H33           -0.6933    -0.8897     5.2831 H       
  34 H34            1.6871    -0.8252     5.9056 H       
  35 H35            0.4450    -0.3670     0.9295 H       
  36 H36           -1.0167    -0.3812    -0.0872 H       
  37 H37            0.4044    -0.1087    -2.1120 H       
  38 H38            2.6939    -0.3537    -0.1077 H       
  39 H39            2.8695    -0.3583    -1.8796 H       
  40 H40            1.9410     1.9056    -2.0192 H       
  41 H41            3.2857     1.9039    -0.8492 H       
  42 H42            1.3362    -2.4057    -0.3334 H       
  43 H43           -0.2010    -2.3815    -1.2304 H       
  44 H44            3.4557    -2.5783    -1.5049 H       
  45 H45           -0.2294    -2.5306    -3.6513 H       
  46 H46            0.9379    -3.3143    -5.6728 H       
  47 H47            3.3651    -3.7246    -5.6119 H       
  48 H48            4.6239    -3.3574    -3.5277 H       
@<TRIPOS>BOND
   1    1   16 1
   2    1    3 1
   3    1   27 1
   4    1   28 1
   5    2    3 am
   6    2    4 2
   7    2    5 2
   8    2    6 1
   9    3   19 1
  10    6    7 ar
  11    6   11 ar
  12    7    8 ar
  13    7   12 ar
  14    8    9 ar
  15    8   15 ar
  16    9   10 ar
  17    9   29 1
  18   10   11 ar
  19   10   30 1
  20   11   31 1
  21   12   13 ar
  22   13   14 ar
  23   13   32 1
  24   14   15 ar
  25   14   33 1
  26   15   34 1
  27   16   17 1
  28   16   35 1
  29   16   36 1
  30   17   18 1
  31   17   20 1
  32   17   37 1
  33   18   19 1
  34   18   38 1
  35   18   39 1
  36   19   40 1
  37   19   41 1
  38   20   21 1
  39   20   42 1
  40   20   43 1
  41   21   22 ar
  42   21   23 ar
  43   22   26 ar
  44   22   44 1
  45   23   24 ar
  46   23   45 1
  47   24   25 ar
  48   24   46 1
  49   25   26 ar
  50   25   47 1
  51   26   48 1

#	End of record

