#	Name: ASD01208747
#	Creating user name:	WinNT
#	Creation time:	15. 06. 2019 19:10

#	Modifying user name:	WinNT
#	Modification time:	15. 06. 2019 19:10

#	Program:	/corina/corina34_cracker 3.40 0067  02.08.2006

@<TRIPOS>MOLECULE
ASD01208747
  55   58    0    0    0
SMALL
NO_CHARGES


@<TRIPOS>ATOM
   1 C1            -0.2569     1.7817     0.5383 C.2     
   2 C2            -0.2251     0.3210     0.3136 C.ar    
   3 C3             0.9437    -0.2919    -0.1402 C.ar    
   4 C4             0.9694    -1.6607    -0.3489 C.ar    
   5 C5            -0.1648    -2.4227    -0.1080 C.ar    
   6 C6            -1.3289    -1.8176     0.3433 C.ar    
   7 C7            -1.3616    -0.4496     0.5602 C.ar    
   8 O8             0.7359     2.4508     0.3277 O.2     
   9 N9            -1.3883     2.3724     0.9713 N.am    
  10 S10           -2.7803     4.6223     1.7282 S.3     
  11 C11           -1.4182     3.7449     1.1824 C.2     
  12 N12           -0.4173     4.5471     0.9943 N.2     
  13 C13           -0.6220     5.8267     1.2452 C.2     
  14 C14           -1.8543     6.1196     1.6652 C.2     
  15 O15           -2.4371    -2.5685     0.5773 O.3     
  16 C16           -3.4352    -2.5374    -0.3445 C.ar    
  17 C17           -3.2833    -1.7958    -1.5046 C.ar    
  18 C18           -4.3098    -1.7671    -2.4480 C.ar    
  19 C19           -5.4839    -2.4861    -2.2169 C.ar    
  20 C20           -5.6250    -3.2215    -1.0581 C.ar    
  21 C21           -4.6043    -3.2535    -0.1258 C.ar    
  22 O22           -5.0613    -0.8609    -4.6800 O.3     
  23 C23           -4.1554    -0.9775    -3.6885 C.2     
  24 N24           -3.1112    -0.2594    -4.0292 N.2     
  25 N25           -3.3284     0.2891    -5.1727 N.2     
  26 C26           -4.5101    -0.0545    -5.6034 C.2     
  27 C27           -5.1433     0.3744    -6.9019 C.3     
  28 O28            2.1072    -2.2585    -0.7909 O.3     
  29 C29            3.1130    -4.0086    -2.1198 C.3     
  30 C30            2.0304    -3.6517    -1.0993 C.3     
  31 C31            2.2429    -4.4690     0.1766 C.3     
  32 O32            4.4020    -3.8220    -1.5317 O.3     
  33 C33            5.4897    -4.1294    -2.4061 C.3     
  34 H34            1.8269     0.3005    -0.3287 H       
  35 H35           -0.1415    -3.4899    -0.2725 H       
  36 H36           -2.2668     0.0201     0.9157 H       
  37 H37           -2.1817     1.8390     1.1355 H       
  38 H38            0.1459     6.5759     1.1209 H       
  39 H39           -2.2199     7.1029     1.9220 H       
  40 H40           -2.3728    -1.2413    -1.6777 H       
  41 H41           -6.2816    -2.4663    -2.9448 H       
  42 H42           -6.5339    -3.7773    -0.8805 H       
  43 H43           -4.7187    -3.8342     0.7776 H       
  44 H44           -5.7051     1.2953    -6.7454 H       
  45 H45           -4.3656     0.5454    -7.6463 H       
  46 H46           -5.8170    -0.4071    -7.2532 H       
  47 H47            2.9986    -5.0496    -2.4218 H       
  48 H48            3.0155    -3.3640    -2.9934 H       
  49 H49            1.0491    -3.8779    -1.5165 H       
  50 H50            3.2241    -4.2428     0.5937 H       
  51 H51            1.4716    -4.2147     0.9036 H       
  52 H52            2.1843    -5.5317    -0.0587 H       
  53 H53            5.4246    -5.1730    -2.7140 H       
  54 H54            5.4415    -3.4873    -3.2856 H       
  55 H55            6.4327    -3.9623    -1.8855 H       
@<TRIPOS>BOND
   1    1    2 1
   2    1    8 2
   3    1    9 am
   4    2    3 ar
   5    2    7 ar
   6    3    4 ar
   7    3   34 1
   8    4    5 ar
   9    4   28 1
  10    5    6 ar
  11    5   35 1
  12    6    7 ar
  13    6   15 1
  14    7   36 1
  15    9   11 1
  16    9   37 1
  17   10   11 1
  18   10   14 1
  19   11   12 2
  20   12   13 1
  21   13   14 2
  22   13   38 1
  23   14   39 1
  24   15   16 1
  25   16   17 ar
  26   16   21 ar
  27   17   18 ar
  28   17   40 1
  29   18   19 ar
  30   18   23 1
  31   19   20 ar
  32   19   41 1
  33   20   21 ar
  34   20   42 1
  35   21   43 1
  36   22   23 1
  37   22   26 1
  38   23   24 2
  39   24   25 1
  40   25   26 2
  41   26   27 1
  42   27   44 1
  43   27   45 1
  44   27   46 1
  45   28   30 1
  46   29   30 1
  47   29   32 1
  48   29   47 1
  49   29   48 1
  50   30   31 1
  51   30   49 1
  52   31   50 1
  53   31   51 1
  54   31   52 1
  55   32   33 1
  56   33   53 1
  57   33   54 1
  58   33   55 1

#	End of record

