#	Name: ASD01915541
#	Creating user name:	WinNT
#	Creation time:	15. 06. 2019 20:05

#	Modifying user name:	WinNT
#	Modification time:	15. 06. 2019 20:05

#	Program:	/corina/corina34_cracker 3.40 0067  02.08.2006

@<TRIPOS>MOLECULE
ASD01915541
  39   40    0    0    0
SMALL
NO_CHARGES


@<TRIPOS>ATOM
   1 C1            -0.0167     1.3821     0.0096 C.ar    
   2 C2             0.0021    -0.0041     0.0020 C.ar    
   3 C3             1.2056    -0.6858    -0.0127 C.ar    
   4 C4             2.3968     0.0097    -0.0198 C.ar    
   5 C5             2.3872     1.4072    -0.0127 C.ar    
   6 C6             1.1685     2.0912     0.0021 C.ar    
   7 C7             3.6204     2.1351    -0.0196 C.1     
   8 C8             4.6314     2.7318    -0.0252 C.1     
   9 C9             5.8647     3.4596    -0.0321 C.ar    
  10 C10            7.0912     2.7805    -0.0519 C.ar    
  11 C11            5.8631     4.8610    -0.0250 C.ar    
  12 N12            6.9911     5.5318    -0.0318 N.ar    
  13 C13            8.1701     4.9192    -0.0454 C.ar    
  14 C14            8.2539     3.5262    -0.0584 C.ar    
  15 C15            9.4107     5.7247    -0.0525 C.2     
  16 O16           10.4936     5.1728    -0.0650 O.2     
  17 N17            9.3403     7.0706    -0.0451 N.am    
  18 C18           10.5690     7.8684    -0.0521 C.3     
  19 F19           -1.1964     2.0404     0.0188 F       
  20 C20           11.3783     7.5475    -1.3103 C.3     
  21 C21           10.2113     9.3560    -0.0414 C.3     
  22 C22           11.4007     7.5349     1.1881 C.3     
  23 H23           -0.9273    -0.5543     0.0079 H       
  24 H24            1.2127    -1.7658    -0.0182 H       
  25 H25            3.3352    -0.5247    -0.0306 H       
  26 H26            1.1535     3.1711     0.0077 H       
  27 H27            7.1261     1.7011    -0.0616 H       
  28 H28            4.9241     5.3944    -0.0143 H       
  29 H29            9.2166     3.0369    -0.0736 H       
  30 H30            8.4761     7.5111    -0.0351 H       
  31 H31           10.7858     7.7851    -2.1938 H       
  32 H32           12.2925     8.1411    -1.3155 H       
  33 H33           11.6331     6.4878    -1.3179 H       
  34 H34            9.6348     9.5846     0.8550 H       
  35 H35           11.1255     9.9496    -0.0466 H       
  36 H36            9.6188     9.5936    -0.9249 H       
  37 H37           11.6555     6.4752     1.1805 H       
  38 H38           12.3149     8.1285     1.1829 H       
  39 H39           10.8242     7.7635     2.0845 H       
@<TRIPOS>BOND
   1    1    2 ar
   2    1    6 ar
   3    1   19 1
   4    2    3 ar
   5    2   23 1
   6    3    4 ar
   7    3   24 1
   8    4    5 ar
   9    4   25 1
  10    5    6 ar
  11    5    7 1
  12    6   26 1
  13    7    8 3
  14    8    9 1
  15    9   11 ar
  16    9   10 ar
  17   10   14 ar
  18   10   27 1
  19   11   12 ar
  20   11   28 1
  21   12   13 ar
  22   13   14 ar
  23   13   15 1
  24   14   29 1
  25   15   16 2
  26   15   17 am
  27   17   18 1
  28   17   30 1
  29   18   20 1
  30   18   21 1
  31   18   22 1
  32   20   31 1
  33   20   32 1
  34   20   33 1
  35   21   34 1
  36   21   35 1
  37   21   36 1
  38   22   37 1
  39   22   38 1
  40   22   39 1

#	End of record

