#	Name: ASD08070123
#	Creating user name:	WinNT
#	Creation time:	15. 06. 2019 21:14

#	Modifying user name:	WinNT
#	Modification time:	15. 06. 2019 21:14

#	Program:	/corina/corina34_cracker 3.40 0067  02.08.2006

@<TRIPOS>MOLECULE
ASD08070123
  44   45    0    0    0
SMALL
NO_CHARGES


@<TRIPOS>ATOM
   1 C1             0.1358     1.3781    -0.6118 C.ar    
   2 C2             0.1556    -0.0028    -0.6117 C.ar    
   3 C3             1.1721     2.0869    -0.0222 C.ar    
   4 C4             2.2292     1.4094     0.5675 C.ar    
   5 C5             2.2502     0.0286     0.5683 C.ar    
   6 C6             1.2131    -0.6815    -0.0213 C.ar    
   7 N7             1.2335    -2.0828    -0.0204 N.am    
   8 C8            -1.1641    -4.8678     0.1001 C.3     
   9 N9             0.0883    -4.1170    -0.0189 N.am    
  10 C10            0.0814    -2.7736     0.0891 C.2     
  11 O11            1.1520     3.4465    -0.0227 O.3     
  12 C12           -1.0330    -6.1991    -0.6424 C.3     
  13 C13           -1.4604    -5.1346     1.5772 C.3     
  14 C14            2.2516     4.1118     0.6022 C.3     
  15 C15            2.0545     5.6259     0.5032 C.3     
  16 O16           -0.9642    -2.1847     0.2852 O.2     
  17 C17           -2.7683    -5.9187     1.7014 C.3     
  18 C18           -2.6373    -7.2501     0.9590 C.3     
  19 C19           -2.3409    -6.9833    -0.5181 C.3     
  20 C20           -0.7367    -5.9323    -2.1195 C.3     
  21 H21           -0.6846     1.9062    -1.0750 H       
  22 H22           -0.6515    -0.5546    -1.0705 H       
  23 H23            3.0362     1.9619     1.0257 H       
  24 H24            3.0735    -0.4988     1.0271 H       
  25 H25            2.0769    -2.5556    -0.0986 H       
  26 H26           -1.9781    -4.2879    -0.3348 H       
  27 H27            0.9224    -4.5867    -0.1754 H       
  28 H28           -0.2190    -6.7791    -0.2075 H       
  29 H29           -0.6464    -5.7145     2.0121 H       
  30 H30           -1.5538    -4.1861     2.1061 H       
  31 H31            2.3043     3.8201     1.6511 H       
  32 H32            3.1780     3.8324     0.1004 H       
  33 H33            1.1281     5.9053     1.0050 H       
  34 H34            2.8932     6.1333     0.9798 H       
  35 H35            2.0019     5.9176    -0.5457 H       
  36 H36           -2.9794    -6.1088     2.7538 H       
  37 H37           -3.5823    -5.3388     1.2666 H       
  38 H38           -1.8232    -7.8300     1.3939 H       
  39 H39           -3.5690    -7.8087     1.0475 H       
  40 H40           -3.1550    -6.4033    -0.9530 H       
  41 H41           -2.2476    -7.9317    -1.0471 H       
  42 H42            0.1951    -5.3737    -2.2080 H       
  43 H43           -0.6434    -6.8808    -2.6484 H       
  44 H44           -1.5508    -5.3524    -2.5544 H       
@<TRIPOS>BOND
   1    1    2 ar
   2    1    3 ar
   3    1   21 1
   4    2    6 ar
   5    2   22 1
   6    3    4 ar
   7    3   11 1
   8    4    5 ar
   9    4   23 1
  10    5    6 ar
  11    5   24 1
  12    6    7 1
  13    7   10 am
  14    7   25 1
  15    8    9 1
  16    8   12 1
  17    8   13 1
  18    8   26 1
  19    9   10 am
  20    9   27 1
  21   10   16 2
  22   11   14 1
  23   12   20 1
  24   12   19 1
  25   12   28 1
  26   13   17 1
  27   13   29 1
  28   13   30 1
  29   14   15 1
  30   14   31 1
  31   14   32 1
  32   15   33 1
  33   15   34 1
  34   15   35 1
  35   17   18 1
  36   17   36 1
  37   17   37 1
  38   18   19 1
  39   18   38 1
  40   18   39 1
  41   19   40 1
  42   19   41 1
  43   20   42 1
  44   20   43 1
  45   20   44 1

#	End of record

