#	Name: ASD01920045
#	Creating user name:	WinNT
#	Creation time:	15. 06. 2019 20:11

#	Modifying user name:	WinNT
#	Modification time:	15. 06. 2019 20:11

#	Program:	/corina/corina34_cracker 3.40 0067  02.08.2006

@<TRIPOS>MOLECULE
ASD01920045
  54   56    0    0    0
SMALL
NO_CHARGES


@<TRIPOS>ATOM
   1 N1            -1.0359     2.6895    -0.1740 N.pl3   
   2 C2            -0.8465     1.3728    -0.4920 C.2     
   3 C3            -2.0140     0.7191    -0.3751 C.2     
   4 C4            -3.0072     1.7151     0.0506 C.2     
   5 C5            -2.3232     2.9108     0.1590 C.2     
   6 C6             0.4632     0.7541    -0.9078 C.3     
   7 C7            -2.9156     4.2346     0.5687 C.3     
   8 C8            -0.0355     3.6655    -0.1867 C.ar    
   9 C9            -4.4299     1.4861     0.3116 C.2     
  10 O10           -5.1389     2.4074     0.6593 O.2     
  11 C11           -5.0133     0.1062     0.1483 C.3     
  12 O12           -6.4079     0.1390     0.4583 O.3     
  13 C13           -7.0898    -1.0332     0.3601 C.ar    
  14 C14           -8.4465    -1.0725     0.6466 C.ar    
  15 C15            0.5724     4.0201    -1.3862 C.ar    
  16 C16            1.5583     4.9813    -1.4027 C.ar    
  17 C17            1.9476     5.6011    -0.2120 C.ar    
  18 C18            1.3340     5.2424     0.9915 C.ar    
  19 C19            0.3455     4.2838     0.9994 C.ar    
  20 C20            3.0038     6.6309    -0.2253 C.2     
  21 O21            3.5364     6.9413    -1.2723 O.2     
  22 O22            3.3778     7.2274     0.9236 O.3     
  23 C23            4.4230     8.2314     0.8352 C.3     
  24 C24           -9.1392    -2.2631     0.5464 C.ar    
  25 C25           -8.4783    -3.4195     0.1592 C.ar    
  26 C26           -7.1216    -3.3803    -0.1269 C.ar    
  27 C27           -6.4300    -2.1886    -0.0322 C.ar    
  28 O28           -9.1604    -4.5918     0.0605 O.3     
  29 C29           -9.9443    -4.7520    -1.0174 C.2     
  30 O30           -9.9483    -3.9171    -1.8909 O.2     
  31 C31          -10.8193    -5.9729    -1.1381 C.3     
  32 H32           -2.1884    -0.3309    -0.5582 H       
  33 H33            0.9936     0.3983    -0.0245 H       
  34 H34            0.2726    -0.0832    -1.5791 H       
  35 H35            1.0707     1.4999    -1.4205 H       
  36 H36           -2.8478     4.3435     1.6511 H       
  37 H37           -2.3660     5.0433     0.0870 H       
  38 H38           -3.9615     4.2743     0.2644 H       
  39 H39           -4.8776    -0.2263    -0.8808 H       
  40 H40           -4.5073    -0.5844     0.8230 H       
  41 H41           -8.9609    -0.1721     0.9484 H       
  42 H42            0.2711     3.5408    -2.3059 H       
  43 H43            2.0304     5.2556    -2.3345 H       
  44 H44            1.6325     5.7189     1.9136 H       
  45 H45           -0.1294     4.0063     1.9289 H       
  46 H46            4.6277     8.6311     1.8284 H       
  47 H47            5.3287     7.7785     0.4320 H       
  48 H48            4.0971     9.0383     0.1789 H       
  49 H49          -10.1954    -2.2937     0.7698 H       
  50 H50           -6.6069    -4.2809    -0.4276 H       
  51 H51           -5.3737    -2.1580    -0.2550 H       
  52 H52          -10.6819    -6.6065    -0.2618 H       
  53 H53          -11.8633    -5.6666    -1.2048 H       
  54 H54          -10.5458    -6.5288    -2.0349 H       
@<TRIPOS>BOND
   1    1    2 1
   2    1    8 1
   3    1    5 1
   4    2    3 2
   5    2    6 1
   6    3    4 1
   7    3   32 1
   8    4    5 2
   9    4    9 1
  10    5    7 1
  11    6   33 1
  12    6   34 1
  13    6   35 1
  14    7   36 1
  15    7   37 1
  16    7   38 1
  17    8   15 ar
  18    8   19 ar
  19    9   10 2
  20    9   11 1
  21   11   12 1
  22   11   39 1
  23   11   40 1
  24   12   13 1
  25   13   14 ar
  26   13   27 ar
  27   14   24 ar
  28   14   41 1
  29   15   16 ar
  30   15   42 1
  31   16   17 ar
  32   16   43 1
  33   17   18 ar
  34   17   20 1
  35   18   19 ar
  36   18   44 1
  37   19   45 1
  38   20   21 2
  39   20   22 1
  40   22   23 1
  41   23   46 1
  42   23   47 1
  43   23   48 1
  44   24   25 ar
  45   24   49 1
  46   25   26 ar
  47   25   28 1
  48   26   27 ar
  49   26   50 1
  50   27   51 1
  51   28   29 1
  52   29   30 2
  53   29   31 1
  54   31   52 1
  55   31   53 1
  56   31   54 1

#	End of record

