#	Name: ASD01910500
#	Creating user name:	WinNT
#	Creation time:	15. 06. 2019 19:55

#	Modifying user name:	WinNT
#	Modification time:	15. 06. 2019 19:55

#	Program:	/corina/corina34_cracker 3.40 0067  02.08.2006

@<TRIPOS>MOLECULE
ASD01910500
  48   51    0    0    0
SMALL
NO_CHARGES


@<TRIPOS>ATOM
   1 C1            -0.8536     1.9334     1.0600 C.ar    
   2 C2            -0.8702     0.4958     0.6928 C.2     
   3 N3            -1.8836    -0.3747     0.9026 N.2     
   4 C4            -1.4675    -1.5208     0.4244 C.2     
   5 O5            -0.2355    -1.3234    -0.0551 O.3     
   6 N6             0.0902    -0.1654     0.1006 N.2     
   7 C7            -2.2336    -2.8185     0.4167 C.3     
   8 C8            -2.4191    -3.2936    -1.0263 C.3     
   9 C9            -3.2253    -4.5944    -1.0372 C.3     
  10 C10           -2.4567    -5.6734    -0.2679 C.3     
  11 N11           -2.1475    -5.1663     1.0760 N.am    
  12 C12           -1.4538    -3.8774     1.2025 C.3     
  13 C13           -2.4937    -5.8702     2.1720 C.2     
  14 C14           -3.2637    -7.1218     2.0325 C.ar    
  15 O15           -2.1719    -5.4743     3.2756 O.2     
  16 C16           -2.8366    -8.1116     1.1434 C.ar    
  17 C17           -3.5577    -9.2778     1.0162 C.ar    
  18 C18           -4.7092    -9.4709     1.7703 C.ar    
  19 C19           -5.1373    -8.4888     2.6558 C.ar    
  20 C20           -4.4184    -7.3224     2.7934 C.ar    
  21 C21            0.2671     2.7130     0.7804 C.ar    
  22 C22            0.2782     4.0493     1.1231 C.ar    
  23 C23           -0.8227     4.6163     1.7448 C.ar    
  24 C24           -1.9391     3.8447     2.0247 C.ar    
  25 C25           -1.9608     2.5090     1.6803 C.ar    
  26 F26           -0.8074     5.9251     2.0795 F       
  27 O27           -5.4176   -10.6212     1.6414 O.3     
  28 C28           -6.5908   -10.7543     2.4463 C.3     
  29 F29           -7.4866    -9.7247     2.1387 F       
  30 F30           -7.1947   -11.9899     2.1898 F       
  31 F31           -6.2398   -10.6786     3.7984 F       
  32 H32           -3.2095    -2.6676     0.8782 H       
  33 H33           -2.9523    -2.5311    -1.5940 H       
  34 H34           -1.4432    -3.4675    -1.4796 H       
  35 H35           -4.1918    -4.4273    -0.5617 H       
  36 H36           -3.3770    -4.9198    -2.0664 H       
  37 H37           -3.0693    -6.5713    -0.1876 H       
  38 H38           -1.5302    -5.9063    -0.7926 H       
  39 H39           -0.4455    -3.9638     0.7976 H       
  40 H40           -1.4047    -3.5903     2.2528 H       
  41 H41           -1.9424    -7.9620     0.5566 H       
  42 H42           -3.2283   -10.0433     0.3292 H       
  43 H43           -6.0326    -8.6425     3.2400 H       
  44 H44           -4.7515    -6.5599     3.4819 H       
  45 H45            1.1259     2.2717     0.2965 H       
  46 H46            1.1463     4.6543     0.9067 H       
  47 H47           -2.7949     4.2905     2.5097 H       
  48 H48           -2.8313     1.9083     1.8987 H       
@<TRIPOS>BOND
   1    1    2 1
   2    1   21 ar
   3    1   25 ar
   4    2    3 1
   5    2    6 2
   6    3    4 2
   7    4    5 1
   8    4    7 1
   9    5    6 1
  10    7    8 1
  11    7   12 1
  12    7   32 1
  13    8    9 1
  14    8   33 1
  15    8   34 1
  16    9   10 1
  17    9   35 1
  18    9   36 1
  19   10   11 1
  20   10   37 1
  21   10   38 1
  22   11   12 1
  23   11   13 am
  24   12   39 1
  25   12   40 1
  26   13   14 1
  27   13   15 2
  28   14   16 ar
  29   14   20 ar
  30   16   17 ar
  31   16   41 1
  32   17   18 ar
  33   17   42 1
  34   18   19 ar
  35   18   27 1
  36   19   20 ar
  37   19   43 1
  38   20   44 1
  39   21   22 ar
  40   21   45 1
  41   22   23 ar
  42   22   46 1
  43   23   24 ar
  44   23   26 1
  45   24   25 ar
  46   24   47 1
  47   25   48 1
  48   27   28 1
  49   28   29 1
  50   28   30 1
  51   28   31 1

#	End of record

