#	Name: ASD08150164
#	Creating user name:	WinNT
#	Creation time:	15. 06. 2019 21:15

#	Modifying user name:	WinNT
#	Modification time:	15. 06. 2019 21:15

#	Program:	/corina/corina34_cracker 3.40 0067  02.08.2006

@<TRIPOS>MOLECULE
ASD08150164
  42   45    0    0    0
SMALL
NO_CHARGES


@<TRIPOS>ATOM
   1 O1            -0.0164     1.3591     0.0095 O.3     
   2 C2             0.0021    -0.0041     0.0020 C.2     
   3 N3             1.1503    -0.5041     0.5341 N.am    
   4 C4             1.9721     0.6306     0.8995 C.3     
   5 C5             1.3712     1.7456    -0.0017 C.3     
   6 C6             3.4599     0.6128     0.6474 C.3     
   7 C7             4.0135     1.9615     1.1429 C.3     
   8 C8             3.3208     3.1433     0.4730 C.3     
   9 C9             1.7879     3.0634     0.6153 C.3     
  10 O10           -0.9017    -0.6923    -0.4289 O.2     
  11 C11            2.9000    -3.4791     1.4791 C.ar    
  12 N12            2.5894    -2.2010     1.3224 N.ar    
  13 C13            1.4725    -1.8469     0.6959 C.ar    
  14 C14            0.6278    -2.8411     0.2031 C.ar    
  15 C15            0.9883    -4.1644     0.3874 C.ar    
  16 N16            2.1178    -4.4456     1.0222 N.ar    
  17 N17            4.0740    -3.8130     2.1315 N.3     
  18 C18            4.2395    -5.2720     2.2045 C.3     
  19 C19            5.5755    -5.5955     2.8786 C.3     
  20 O20            5.6135    -4.9810     4.1695 O.3     
  21 C21            5.4560    -3.5599     4.1355 C.3     
  22 C22            4.1188    -3.2158     3.4741 C.3     
  23 Cl23          -0.0270    -5.4416    -0.2054 Cl      
  24 H24            1.7950     0.8814     1.9454 H       
  25 H25            1.7710     1.6612    -1.0122 H       
  26 H26            3.9215    -0.2050     1.2008 H       
  27 H27            3.6555     0.4992    -0.4189 H       
  28 H28            3.8681     2.0298     2.2210 H       
  29 H29            5.0810     2.0074     0.9271 H       
  30 H30            3.6723     4.0676     0.9315 H       
  31 H31            3.5792     3.1530    -0.5859 H       
  32 H32            1.3190     3.8907     0.0825 H       
  33 H33            1.5081     3.0885     1.6684 H       
  34 H34           -0.2870    -2.5843    -0.3102 H       
  35 H35            3.4245    -5.7021     2.7867 H       
  36 H36            4.2289    -5.6903     1.1981 H       
  37 H37            5.6766    -6.6754     2.9865 H       
  38 H38            6.3933    -5.2118     2.2686 H       
  39 H39            5.4707    -3.1677     5.1523 H       
  40 H40            6.2703    -3.1171     3.5620 H       
  41 H41            4.0201    -2.1332     3.3944 H       
  42 H42            3.3019    -3.6130     4.0766 H       
@<TRIPOS>BOND
   1    1    2 1
   2    1    5 1
   3    2    3 am
   4    2   10 2
   5    3    4 1
   6    3   13 1
   7    4    5 1
   8    4    6 1
   9    4   24 1
  10    5    9 1
  11    5   25 1
  12    6    7 1
  13    6   26 1
  14    6   27 1
  15    7    8 1
  16    7   28 1
  17    7   29 1
  18    8    9 1
  19    8   30 1
  20    8   31 1
  21    9   32 1
  22    9   33 1
  23   11   12 ar
  24   11   16 ar
  25   11   17 1
  26   12   13 ar
  27   13   14 ar
  28   14   15 ar
  29   14   34 1
  30   15   16 ar
  31   15   23 1
  32   17   18 1
  33   17   22 1
  34   18   19 1
  35   18   35 1
  36   18   36 1
  37   19   20 1
  38   19   37 1
  39   19   38 1
  40   20   21 1
  41   21   22 1
  42   21   39 1
  43   21   40 1
  44   22   41 1
  45   22   42 1

#	End of record

