#	Name: ASD01884036
#	Creating user name:	WinNT
#	Creation time:	15. 06. 2019 19:47

#	Modifying user name:	WinNT
#	Modification time:	15. 06. 2019 19:47

#	Program:	/corina/corina34_cracker 3.40 0067  02.08.2006

@<TRIPOS>MOLECULE
ASD01884036
  53   56    0    0    0
SMALL
NO_CHARGES


@<TRIPOS>ATOM
   1 C1            -0.2785     0.9772     0.3390 C.3     
   2 C2            -0.1365    -0.5425     0.2330 C.3     
   3 C3             0.5904    -0.8975    -1.0657 C.3     
   4 C4             0.7324    -2.4172    -1.1717 C.3     
   5 N5             1.4284    -2.7571    -2.4152 N.am    
   6 C6             0.7981    -3.0092    -3.7158 C.3     
   7 N7             1.8798    -3.3081    -4.6567 N.pl3   
   8 C8             3.0592    -3.2379    -3.9651 C.2     
   9 N9             4.0469    -3.5047    -4.7993 N.2     
  10 C10            3.5581    -3.7464    -6.0088 C.2     
  11 C11            4.3629    -4.0902    -7.2357 C.3     
  12 C12            2.1838    -3.6284    -5.9478 C.2     
  13 C13            1.2302    -3.8135    -7.0609 C.ar    
  14 C14            0.0639    -4.5562    -6.8671 C.ar    
  15 C15           -0.8242    -4.7273    -7.9077 C.ar    
  16 C16           -0.5609    -4.1623    -9.1480 C.ar    
  17 O17           -1.4391    -4.3330   -10.1707 O.3     
  18 C18           -1.2210    -5.3571   -11.0333 C.ar    
  19 C19           -2.1436    -5.6181   -12.0366 C.ar    
  20 C20           -1.9122    -6.6662   -12.9130 C.ar    
  21 C21           -0.7607    -7.4200   -12.7544 C.ar    
  22 C22            0.1204    -7.1044   -11.7291 C.ar    
  23 O23            1.2508    -7.8368   -11.5665 O.3     
  24 C24            2.1174    -7.4628   -10.4935 C.3     
  25 F25            2.5471    -6.1444   -10.6791 F       
  26 F26            1.4274    -7.5620    -9.2806 F       
  27 N27           -0.1276    -6.0934   -10.9125 N.ar    
  28 C28            0.5998    -3.4212    -9.3465 C.ar    
  29 F29            0.8523    -2.8730   -10.5552 F       
  30 C30            1.4903    -3.2410    -8.3083 C.ar    
  31 C31            2.7593    -2.8874    -2.5673 C.2     
  32 O32            3.5853    -2.7403    -1.6866 O.2     
  33 H33            0.7106     1.4354     0.3393 H       
  34 H34           -0.8508     1.3488    -0.5110 H       
  35 H35           -0.7963     1.2301     1.2641 H       
  36 H36            0.4358    -0.9141     1.0829 H       
  37 H37           -1.1255    -1.0007     0.2326 H       
  38 H38            0.0181    -0.5259    -1.9157 H       
  39 H39            1.5794    -0.4393    -1.0654 H       
  40 H40            1.3047    -2.7888    -0.3217 H       
  41 H41           -0.2567    -2.8753    -1.1720 H       
  42 H42            0.1209    -3.8603    -3.6434 H       
  43 H43            0.2524    -2.1245    -4.0436 H       
  44 H44            4.4815    -5.1718    -7.3011 H       
  45 H45            3.8450    -3.7271    -8.1235 H       
  46 H46            5.3443    -3.6204    -7.1699 H       
  47 H47           -0.1422    -4.9967    -5.9028 H       
  48 H48           -1.7261    -5.3021    -7.7577 H       
  49 H49           -3.0320    -5.0115   -12.1330 H       
  50 H50           -2.6143    -6.8908   -13.7023 H       
  51 H51           -0.5511    -8.2438   -13.4205 H       
  52 H52            2.9812    -8.1274   -10.4756 H       
  53 H53            2.3890    -2.6618    -8.4608 H       
@<TRIPOS>BOND
   1    1    2 1
   2    1   33 1
   3    1   34 1
   4    1   35 1
   5    2    3 1
   6    2   36 1
   7    2   37 1
   8    3    4 1
   9    3   38 1
  10    3   39 1
  11    4    5 1
  12    4   40 1
  13    4   41 1
  14    5   31 am
  15    5    6 1
  16    6    7 1
  17    6   42 1
  18    6   43 1
  19    7   12 1
  20    7    8 1
  21    8    9 2
  22    8   31 1
  23    9   10 1
  24   10   11 1
  25   10   12 2
  26   11   44 1
  27   11   45 1
  28   11   46 1
  29   12   13 1
  30   13   30 ar
  31   13   14 ar
  32   14   15 ar
  33   14   47 1
  34   15   16 ar
  35   15   48 1
  36   16   17 1
  37   16   28 ar
  38   17   18 1
  39   18   27 ar
  40   18   19 ar
  41   19   20 ar
  42   19   49 1
  43   20   21 ar
  44   20   50 1
  45   21   22 ar
  46   21   51 1
  47   22   23 1
  48   22   27 ar
  49   23   24 1
  50   24   25 1
  51   24   26 1
  52   24   52 1
  53   28   29 1
  54   28   30 ar
  55   30   53 1
  56   31   32 2

#	End of record

