#	Name: ASD02030275
#	Creating user name:	WinNT
#	Creation time:	15. 06. 2019 20:15

#	Modifying user name:	WinNT
#	Modification time:	15. 06. 2019 20:15

#	Program:	/corina/corina34_cracker 3.40 0067  02.08.2006

@<TRIPOS>MOLECULE
ASD02030275
  52   56    0    0    0
SMALL
NO_CHARGES


@<TRIPOS>ATOM
   1 N1            -0.0702     1.2689     0.3481 N.am    
   2 C2            -0.2879    -0.1845     0.3633 C.3     
   3 C3            -1.3237    -0.5135     1.4455 C.3     
   4 N4            -2.4819     0.3744     1.2725 N.am    
   5 C5            -2.2642     1.8278     1.2572 C.3     
   6 C6            -1.2291     2.1570     0.1807 C.3     
   7 C7             1.1694     1.7783     0.4908 C.2     
   8 C8             2.3065     0.8827     0.7916 C.2     
   9 N9             3.5348     1.2600     1.0742 N.2     
  10 N10            2.2662    -0.4618     0.8303 N.2     
  11 C11            3.4700    -0.8785     1.1301 C.2     
  12 N12            4.2527     0.2098     1.2798 N.pl3   
  13 C13            5.6160     0.2002     1.6042 C.ar    
  14 O14            1.3525     2.9742     0.3722 O.2     
  15 C15           -3.7215    -0.1350     1.1298 C.2     
  16 C16           -3.9130    -1.5898     1.0457 C.2     
  17 O17           -4.6820     0.6094     1.0707 O.2     
  18 C18            6.3095     1.3961     1.7291 C.ar    
  19 C19            7.6545     1.3831     2.0491 C.ar    
  20 C20            8.3086     0.1793     2.2441 C.ar    
  21 C21            7.6194    -1.0131     2.1197 C.ar    
  22 C22            6.2744    -1.0058     1.8067 C.ar    
  23 C23           -0.7859     3.6144     0.3231 C.3     
  24 O24           -2.9466    -2.5125     1.2347 O.3     
  25 C25           -3.4378    -3.7585     1.0897 C.ar    
  26 C26           -4.8075    -3.6433     0.7878 C.ar    
  27 C27           -5.0905    -2.2085     0.7717 C.2     
  28 C28           -2.8682    -5.0234     1.1805 C.ar    
  29 C29           -3.6460    -6.1423     0.9753 C.ar    
  30 C30           -4.9967    -6.0228     0.6773 C.ar    
  31 C31           -5.5786    -4.7902     0.5837 C.ar    
  32 Cl32           8.5234     2.8778     2.2057 Cl      
  33 H33           -0.6589    -0.5090    -0.6089 H       
  34 H34            0.6499    -0.6925     0.5880 H       
  35 H35           -1.6404    -1.5517     1.3452 H       
  36 H36           -0.8858    -0.3557     2.4311 H       
  37 H37           -3.2020     2.3358     1.0326 H       
  38 H38           -1.8932     2.1523     2.2295 H       
  39 H39           -1.6646     1.9992    -0.8060 H       
  40 H40            3.7799    -1.9072     1.2409 H       
  41 H41            5.7992     2.3355     1.5761 H       
  42 H42            9.3593     0.1711     2.4937 H       
  43 H43            8.1327    -1.9511     2.2718 H       
  44 H44            5.7370    -1.9376     1.7101 H       
  45 H45           -0.2440     3.7394     1.2606 H       
  46 H46           -0.1357     3.8796    -0.5106 H       
  47 H47           -1.6622     4.2626     0.3208 H       
  48 H48           -6.0417    -1.7365     0.5749 H       
  49 H49           -1.8184    -5.1290     1.4111 H       
  50 H50           -3.1997    -7.1232     1.0468 H       
  51 H51           -5.5915    -6.9102     0.5187 H       
  52 H52           -6.6298    -4.7029     0.3519 H       
@<TRIPOS>BOND
   1    1    2 1
   2    1    7 am
   3    1    6 1
   4    2    3 1
   5    2   33 1
   6    2   34 1
   7    3    4 1
   8    3   35 1
   9    3   36 1
  10    4    5 1
  11    4   15 am
  12    5    6 1
  13    5   37 1
  14    5   38 1
  15    6   23 1
  16    6   39 1
  17    7    8 1
  18    7   14 2
  19    8    9 2
  20    8   10 1
  21    9   12 1
  22   10   11 2
  23   11   12 1
  24   11   40 1
  25   12   13 1
  26   13   18 ar
  27   13   22 ar
  28   15   16 1
  29   15   17 2
  30   16   24 1
  31   16   27 2
  32   18   19 ar
  33   18   41 1
  34   19   20 ar
  35   19   32 1
  36   20   21 ar
  37   20   42 1
  38   21   22 ar
  39   21   43 1
  40   22   44 1
  41   23   45 1
  42   23   46 1
  43   23   47 1
  44   24   25 1
  45   25   26 ar
  46   25   28 ar
  47   26   27 1
  48   26   31 ar
  49   27   48 1
  50   28   29 ar
  51   28   49 1
  52   29   30 ar
  53   29   50 1
  54   30   31 ar
  55   30   51 1
  56   31   52 1

#	End of record

