#	Name: ASD01884778
#	Creating user name:	WinNT
#	Creation time:	15. 06. 2019 19:48

#	Modifying user name:	WinNT
#	Modification time:	15. 06. 2019 19:48

#	Program:	/corina/corina34_cracker 3.40 0067  02.08.2006

@<TRIPOS>MOLECULE
ASD01884778
  41   43    0    0    0
SMALL
NO_CHARGES


@<TRIPOS>ATOM
   1 N1            -0.0163     1.3534     0.0095 N.am    
   2 C2             0.0021    -0.0041     0.0020 C.2     
   3 C3             1.1314     2.0576     0.0023 C.2     
   4 C4             2.3671     1.3883    -0.0131 C.2     
   5 C5             2.3876     0.0245    -0.0207 C.2     
   6 C6             1.1751    -0.6792    -0.0129 C.2     
   7 C7            -1.2995     2.0602     0.0194 C.3     
   8 C8            -1.7328     2.2948     1.4436 C.ar    
   9 C9            -1.3578     3.4512     2.1099 C.ar    
  10 C10           -2.5139     1.3624     2.1001 C.ar    
  11 N11           -2.8976     1.5612     3.3458 N.ar    
  12 C12           -2.5556     2.6468     4.0120 C.ar    
  13 C13           -1.7800     3.6249     3.4193 C.ar    
  14 O14            1.0986     3.2777     0.0088 O.2     
  15 C15            1.1777    -2.1862    -0.0205 C.3     
  16 O16           -0.1687    -2.6649    -0.0103 O.3     
  17 C17           -0.3444    -4.0125    -0.0155 C.ar    
  18 C18           -3.0207     2.8253     5.4343 C.3     
  19 F19           -3.6923     1.6719     5.8536 F       
  20 F20           -1.9151     3.0481     6.2620 F       
  21 F21           -3.8866     3.9217     5.5076 F       
  22 C22           -1.6249    -4.5463    -0.0061 C.ar    
  23 C23            0.7564    -4.8567    -0.0359 C.ar    
  24 C24            0.5751    -6.2262    -0.0416 C.ar    
  25 C25           -0.7020    -6.7557    -0.0274 C.ar    
  26 C26           -1.8008    -5.9165    -0.0119 C.ar    
  27 H27           -0.9291    -0.5510     0.0084 H       
  28 H28            3.2908     1.9479    -0.0193 H       
  29 H29            3.3275    -0.5074    -0.0329 H       
  30 H30           -1.1908     3.0178    -0.4898 H       
  31 H31           -2.0496     1.4587    -0.4942 H       
  32 H32           -0.7510     4.1990     1.6209 H       
  33 H33           -2.8137     0.4608     1.5867 H       
  34 H34           -1.5029     4.5115     3.9701 H       
  35 H35            1.6838    -2.5441    -0.9171 H       
  36 H36            1.7005    -2.5531     0.8627 H       
  37 H37           -2.4834    -3.8913     0.0060 H       
  38 H38            1.7542    -4.4435    -0.0477 H       
  39 H39            1.4317    -6.8837    -0.0575 H       
  40 H40           -0.8416    -7.8266    -0.0323 H       
  41 H41           -2.7974    -6.3326    -0.0005 H       
@<TRIPOS>BOND
   1    1    2 1
   2    1    3 am
   3    1    7 1
   4    2    6 2
   5    2   27 1
   6    3    4 1
   7    3   14 2
   8    4    5 2
   9    4   28 1
  10    5    6 1
  11    5   29 1
  12    6   15 1
  13    7    8 1
  14    7   30 1
  15    7   31 1
  16    8    9 ar
  17    8   10 ar
  18    9   13 ar
  19    9   32 1
  20   10   11 ar
  21   10   33 1
  22   11   12 ar
  23   12   13 ar
  24   12   18 1
  25   13   34 1
  26   15   16 1
  27   15   35 1
  28   15   36 1
  29   16   17 1
  30   17   22 ar
  31   17   23 ar
  32   18   19 1
  33   18   20 1
  34   18   21 1
  35   22   26 ar
  36   22   37 1
  37   23   24 ar
  38   23   38 1
  39   24   25 ar
  40   24   39 1
  41   25   26 ar
  42   25   40 1
  43   26   41 1

#	End of record

