#	Name: ASD01915847
#	Creating user name:	WinNT
#	Creation time:	15. 06. 2019 20:06

#	Modifying user name:	WinNT
#	Modification time:	15. 06. 2019 20:06

#	Program:	/corina/corina34_cracker 3.40 0067  02.08.2006

@<TRIPOS>MOLECULE
ASD01915847
  39   42    0    0    0
SMALL
NO_CHARGES


@<TRIPOS>ATOM
   1 C1            -0.0042     1.4687     0.2349 C.2     
   2 N2             0.0663     0.1193    -0.0301 N.pl3   
   3 C3            -1.1428    -0.6636    -0.3130 C.3     
   4 C4            -2.3279    -0.0486     0.4294 C.3     
   5 N5            -2.4044     1.3988     0.2637 N.am    
   6 C6            -1.2935     2.1743     0.2863 C.2     
   7 C7             1.2763     1.9060     0.4260 C.2     
   8 C8             2.0759     0.7653     0.2737 C.2     
   9 N9             1.2865    -0.2501     0.0108 N.2     
  10 C10            3.5774     0.7133     0.3915 C.3     
  11 O11            4.0775     2.0190     0.6864 O.3     
  12 C12            5.4214     2.1471     0.8256 C.ar    
  13 O13           -1.3591     3.3875     0.3462 O.2     
  14 N14            6.2069     1.0911     0.6885 N.ar    
  15 C15            5.9793     3.3914     1.1075 C.ar    
  16 C16            7.3571     3.4704     1.2399 C.ar    
  17 C17            8.0952     2.3046     1.0833 C.ar    
  18 N18            7.4821     1.1685     0.8116 N.ar    
  19 C19           -3.6541     2.0001     0.0766 C.ar    
  20 Cl20           9.8239     2.3435     1.2381 Cl      
  21 C21           -4.5859     2.0025     1.1063 C.ar    
  22 C22           -5.8184     2.5970     0.9197 C.ar    
  23 C23           -6.1256     3.1900    -0.2934 C.ar    
  24 C24           -5.1980     3.1888    -1.3216 C.ar    
  25 C25           -3.9621     2.6004    -1.1372 C.ar    
  26 F26           -7.3322     3.7702    -0.4742 F       
  27 H27           -1.3401    -0.6536    -1.3850 H       
  28 H28           -0.9975    -1.6909     0.0211 H       
  29 H29           -3.2487    -0.4952     0.0542 H       
  30 H30           -2.2353    -0.2771     1.4912 H       
  31 H31            1.6013     2.9122     0.6461 H       
  32 H32            3.8554     0.0283     1.1925 H       
  33 H33            4.0038     0.3647    -0.5491 H       
  34 H34            5.3581     4.2677     1.2193 H       
  35 H35            7.8419     4.4105     1.4580 H       
  36 H36           -4.3469     1.5395     2.0523 H       
  37 H37           -6.5433     2.5990     1.7202 H       
  38 H38           -5.4397     3.6515    -2.2670 H       
  39 H39           -3.2390     2.5997    -1.9394 H       
@<TRIPOS>BOND
   1    1    2 1
   2    1    7 2
   3    1    6 1
   4    2    3 1
   5    2    9 1
   6    3    4 1
   7    3   27 1
   8    3   28 1
   9    4    5 1
  10    4   29 1
  11    4   30 1
  12    5    6 am
  13    5   19 1
  14    6   13 2
  15    7    8 1
  16    7   31 1
  17    8    9 2
  18    8   10 1
  19   10   11 1
  20   10   32 1
  21   10   33 1
  22   11   12 1
  23   12   14 ar
  24   12   15 ar
  25   14   18 ar
  26   15   16 ar
  27   15   34 1
  28   16   17 ar
  29   16   35 1
  30   17   18 ar
  31   17   20 1
  32   19   21 ar
  33   19   25 ar
  34   21   22 ar
  35   21   36 1
  36   22   23 ar
  37   22   37 1
  38   23   24 ar
  39   23   26 1
  40   24   25 ar
  41   24   38 1
  42   25   39 1

#	End of record

