#	Name: ASD01883798
#	Creating user name:	WinNT
#	Creation time:	15. 06. 2019 19:47

#	Modifying user name:	WinNT
#	Modification time:	15. 06. 2019 19:47

#	Program:	/corina/corina34_cracker 3.40 0067  02.08.2006

@<TRIPOS>MOLECULE
ASD01883798
  54   58    0    0    0
SMALL
NO_CHARGES


@<TRIPOS>ATOM
   1 C1            -0.0168     1.3856     0.0097 C.ar    
   2 C2             0.0021    -0.0041     0.0020 C.ar    
   3 C3             1.2157    -0.6846    -0.0128 C.ar    
   4 C4             2.3947     0.0184    -0.0203 C.ar    
   5 C5             2.3848     1.4172    -0.0132 C.ar    
   6 C6             1.1631     2.0958     0.0022 C.ar    
   7 C7             3.8447    -0.3969    -0.0365 C.3     
   8 N8             4.6266     0.8448    -0.0379 N.am    
   9 C9             3.7803     1.8889    -0.0244 C.2     
  10 O10            4.1185     3.0567    -0.0214 O.2     
  11 O11           -1.1642    -0.6979     0.0095 O.3     
  12 C12           -2.3727     0.0646     0.0252 C.3     
  13 C13           -3.5557    -0.8689     0.0315 C.ar    
  14 C14           -4.0849    -1.3020     1.2301 C.ar    
  15 C15           -5.1791    -2.1649     1.2345 C.ar    
  16 C16           -5.7328    -2.5856     0.0273 C.ar    
  17 C17           -5.1954    -2.1461    -1.1659 C.ar    
  18 C18           -4.1127    -1.2857    -1.1643 C.ar    
  19 C19           -5.7522    -2.6343     2.5203 C.ar    
  20 C20           -6.8463    -3.4971     2.5246 C.ar    
  21 C21           -7.3753    -3.9305     3.7235 C.ar    
  22 C22           -6.8216    -3.5096     4.9191 C.ar    
  23 C23           -5.7354    -2.6532     4.9206 C.ar    
  24 C24           -5.1945    -2.2184     3.7276 C.ar    
  25 C25            6.0889     0.9321    -0.0517 C.3     
  26 C26            6.5598     1.6913    -1.3045 C.3     
  27 C27            7.3221     2.9360    -0.8049 C.3     
  28 C28            7.7856     2.5503     0.6218 C.3     
  29 C29            6.5814     1.7418     1.1655 C.3     
  30 H30           -0.9605     1.9106     0.0170 H       
  31 H31            1.2300    -1.7645    -0.0180 H       
  32 H32            1.1443     3.1757     0.0075 H       
  33 H33            4.0762    -0.9844     0.8519 H       
  34 H34            4.0588    -0.9754    -0.9352 H       
  35 H35           -2.3972     0.6883     0.9188 H       
  36 H36           -2.4142     0.6978    -0.8611 H       
  37 H37           -3.6515    -0.9731     2.1631 H       
  38 H38           -6.5807    -3.2546     0.0250 H       
  39 H39           -5.6237    -2.4719    -2.1023 H       
  40 H40           -3.6956    -0.9440    -2.1001 H       
  41 H41           -7.2798    -3.8258     1.5917 H       
  42 H42           -8.2233    -4.5993     3.7280 H       
  43 H43           -7.2392    -3.8507     5.8549 H       
  44 H44           -5.3070    -2.3277     5.8571 H       
  45 H45           -4.3465    -1.5497     3.7299 H       
  46 H46            6.5225    -0.0678    -0.0361 H       
  47 H47            7.2227     1.0602    -1.8964 H       
  48 H48            5.7004     1.9948    -1.9022 H       
  49 H49            8.1818     3.1386    -1.4435 H       
  50 H50            6.6594     3.8007    -0.7700 H       
  51 H51            8.6811     1.9301     0.5826 H       
  52 H52            7.9573     3.4410     1.2262 H       
  53 H53            5.7991     2.4137     1.5186 H       
  54 H54            6.9006     1.0730     1.9648 H       
@<TRIPOS>BOND
   1    1    2 ar
   2    1    6 ar
   3    1   30 1
   4    2    3 ar
   5    2   11 1
   6    3    4 ar
   7    3   31 1
   8    4    5 ar
   9    4    7 1
  10    5    6 ar
  11    5    9 1
  12    6   32 1
  13    7    8 1
  14    7   33 1
  15    7   34 1
  16    8    9 am
  17    8   25 1
  18    9   10 2
  19   11   12 1
  20   12   13 1
  21   12   35 1
  22   12   36 1
  23   13   14 ar
  24   13   18 ar
  25   14   15 ar
  26   14   37 1
  27   15   16 ar
  28   15   19 1
  29   16   17 ar
  30   16   38 1
  31   17   18 ar
  32   17   39 1
  33   18   40 1
  34   19   20 ar
  35   19   24 ar
  36   20   21 ar
  37   20   41 1
  38   21   22 ar
  39   21   42 1
  40   22   23 ar
  41   22   43 1
  42   23   24 ar
  43   23   44 1
  44   24   45 1
  45   25   26 1
  46   25   29 1
  47   25   46 1
  48   26   27 1
  49   26   47 1
  50   26   48 1
  51   27   28 1
  52   27   49 1
  53   27   50 1
  54   28   29 1
  55   28   51 1
  56   28   52 1
  57   29   53 1
  58   29   54 1

#	End of record

