#	Name: ASD01150816
#	Creating user name:	WinNT
#	Creation time:	15. 06. 2019 19:05

#	Modifying user name:	WinNT
#	Modification time:	15. 06. 2019 19:05

#	Program:	/corina/corina34_cracker 3.40 0067  02.08.2006

@<TRIPOS>MOLECULE
ASD01150816
  51   52    0    0    0
SMALL
NO_CHARGES


@<TRIPOS>ATOM
   1 O1             0.8443     2.3351     1.2470 O.3     
   2 C2             1.2925     1.6460     2.3364 C.3     
   3 C3             2.5422     0.8047     1.9966 C.3     
   4 N4             2.1348    -0.3676     1.2506 N.3     
   5 C5             2.1888    -0.1997    -0.2195 C.3     
   6 C6             1.6582     1.1684    -0.6654 C.3     
   7 C7             0.4236     1.5685     0.1072 C.3     
   8 C8             2.8952    -1.5512     1.6736 C.3     
   9 C9             0.5772    -3.9249     0.0823 C.ar    
  10 N10            1.0619    -2.8600     0.6892 N.ar    
  11 C11            2.3498    -2.7729     0.9800 C.ar    
  12 C12            3.1906    -3.8204     0.6375 C.ar    
  13 C13            2.6441    -4.9230     0.0005 C.ar    
  14 N14            1.3463    -4.9394    -0.2581 N.ar    
  15 C15            3.5160    -6.0876    -0.3929 C.3     
  16 S16            4.6422    -1.3361     1.2349 S.3     
  17 C17            5.3451    -2.2554     3.7133 C.3     
  18 C18            5.4272    -1.0045     2.8362 C.3     
  19 C19            6.8945    -0.6306     2.6172 C.3     
  20 C20            6.9751     0.6884     1.8460 C.3     
  21 C21            8.4425     1.0622     1.6269 C.3     
  22 C22            8.5231     2.3812     0.8557 C.3     
  23 H23            1.5429     2.3530     3.1273 H       
  24 H24            0.5020     0.9835     2.6891 H       
  25 H25            3.2292     1.3994     1.3945 H       
  26 H26            3.0361     0.4969     2.9182 H       
  27 H27            3.2223    -0.3032    -0.5498 H       
  28 H28            1.5897    -0.9811    -0.6871 H       
  29 H29            2.4337     1.9184    -0.5092 H       
  30 H30            1.4150     1.1265    -1.7271 H       
  31 H31           -0.1088     0.6770     0.4386 H       
  32 H32           -0.2266     2.1736    -0.5246 H       
  33 H33            2.8042    -1.6750     2.7527 H       
  34 H34           -0.4792    -3.9691    -0.1379 H       
  35 H35            4.2463    -3.7780     0.8615 H       
  36 H36            3.5504    -6.8081     0.4243 H       
  37 H37            3.1043    -6.5657    -1.2817 H       
  38 H38            4.5238    -5.7313    -0.6058 H       
  39 H39            5.9282    -3.0566     3.2590 H       
  40 H40            5.7437    -2.0321     4.7029 H       
  41 H41            4.3049    -2.5688     3.8027 H       
  42 H42            4.9120    -0.1803     3.3297 H       
  43 H43            7.3888    -0.5181     3.5821 H       
  44 H44            7.3883    -1.4165     2.0455 H       
  45 H45            6.4809     0.5758     0.8810 H       
  46 H46            6.4814     1.4742     2.4176 H       
  47 H47            8.9367     1.1748     2.5919 H       
  48 H48            8.9362     0.2764     1.0553 H       
  49 H49            8.0288     2.2687    -0.1092 H       
  50 H50            8.0293     3.1671     1.4274 H       
  51 H51            9.5684     2.6476     0.6997 H       
@<TRIPOS>BOND
   1    1    2 1
   2    1    7 1
   3    2    3 1
   4    2   23 1
   5    2   24 1
   6    3    4 1
   7    3   25 1
   8    3   26 1
   9    4    5 1
  10    4    8 1
  11    5    6 1
  12    5   27 1
  13    5   28 1
  14    6    7 1
  15    6   29 1
  16    6   30 1
  17    7   31 1
  18    7   32 1
  19    8   11 1
  20    8   16 1
  21    8   33 1
  22    9   10 ar
  23    9   14 ar
  24    9   34 1
  25   10   11 ar
  26   11   12 ar
  27   12   13 ar
  28   12   35 1
  29   13   14 ar
  30   13   15 1
  31   15   36 1
  32   15   37 1
  33   15   38 1
  34   16   18 1
  35   17   18 1
  36   17   39 1
  37   17   40 1
  38   17   41 1
  39   18   19 1
  40   18   42 1
  41   19   20 1
  42   19   43 1
  43   19   44 1
  44   20   21 1
  45   20   45 1
  46   20   46 1
  47   21   22 1
  48   21   47 1
  49   21   48 1
  50   22   49 1
  51   22   50 1
  52   22   51 1

#	End of record

