#	Name: ASD00840618
#	Creating user name:	WinNT
#	Creation time:	15. 06. 2019 18:39

#	Modifying user name:	WinNT
#	Modification time:	15. 06. 2019 18:39

#	Program:	/corina/corina34_cracker 3.40 0067  02.08.2006

@<TRIPOS>MOLECULE
ASD00840618
  91   96    0    0    0
SMALL
NO_CHARGES


@<TRIPOS>ATOM
   1 N1             1.0963     1.4614    -0.7263 N.ar    
   2 C2             1.3508     0.1687    -0.8409 C.ar    
   3 C3             1.2565    -0.6717     0.2613 C.ar    
   4 C4             0.8919    -0.1386     1.4851 C.ar    
   5 C5             0.6331     1.2231     1.5635 C.ar    
   6 C6             0.7464     1.9986     0.4272 C.ar    
   7 C7             1.5470    -2.1442     0.1259 C.3     
   8 C8             1.2505    -2.8651     1.4236 C.2     
   9 C9             0.7326    -2.7468    -1.0206 C.3     
  10 C10           -0.7301    -2.4546    -0.8057 C.2     
  11 N11           -1.6509    -2.9728    -1.6423 N.am    
  12 O12           -1.0786    -1.7531     0.1203 O.2     
  13 C13           -3.0714    -2.6123    -1.5183 C.3     
  14 C14           -3.5826    -2.1677    -2.8927 C.3     
  15 N15           -3.2914    -3.2140    -3.8819 N.3     
  16 C16           -1.8443    -3.4180    -4.0314 C.3     
  17 C17           -1.2610    -3.9092    -2.7074 C.3     
  18 C18           -3.9157    -2.9043    -5.1751 C.3     
  19 C19           -3.4898    -3.9476    -6.2118 C.3     
  20 C20           -4.1909    -3.6552    -7.5403 C.3     
  21 N21           -5.6460    -3.6968    -7.3469 N.3     
  22 C22           -6.0841    -2.6720    -6.3908 C.3     
  23 C23           -5.4395    -2.9351    -5.0280 C.3     
  24 C24           -6.3515    -3.5578    -8.6279 C.3     
  25 O25            0.1735    -2.9390     1.9764 O.2     
  26 N26            2.4035    -3.4084     1.8476 N.am    
  27 C27            3.0252    -2.3749    -0.0917 C.ar    
  28 C28            3.4633    -3.1417     0.9853 C.ar    
  29 C29            3.8924    -1.9833    -1.0800 C.ar    
  30 C30            5.2395    -2.3562    -1.0118 C.ar    
  31 C31            5.6871    -3.1269     0.0680 C.ar    
  32 C32            4.8056    -3.5152     1.0540 C.ar    
  33 F33            6.9857    -3.4920     0.1430 F       
  34 C34            2.2481    -5.9791     2.8181 C.ar    
  35 C35            0.9958    -6.3695     2.3671 C.ar    
  36 C36            3.2617    -6.9111     2.9315 C.ar    
  37 C37            3.0287    -8.2317     2.5955 C.ar    
  38 C38            1.7811    -8.6235     2.1456 C.ar    
  39 C39            0.7644    -7.6956     2.0309 C.ar    
  40 H40            1.6016    -9.6557     1.8838 H       
  41 O41           -0.0030    -5.4547     2.2551 O.3     
  42 C42           -1.2664    -5.9279     1.7840 C.3     
  43 C43           -7.8390    -3.8531    -8.4255 C.3     
  44 C44            6.1528    -1.9530    -2.0384 C.1     
  45 N45            6.8773    -1.6331    -2.8528 N.1     
  46 S46            2.5480    -4.2946     3.2391 S.o2    
  47 O47            3.9130    -4.2146     3.6258 O.2     
  48 O48            1.4765    -3.8949     4.0825 O.2     
  49 O49            1.7069    -0.3417    -2.0465 O.3     
  50 C50            2.2187    -0.1662    -4.4018 C.3     
  51 C51            1.6781     0.5501    -3.1626 C.3     
  52 H52            0.8101    -0.7676     2.3592 H       
  53 H53            0.3459     1.6709     2.5035 H       
  54 H54            0.5466     3.0585     0.4829 H       
  55 H55            1.0556    -2.3089    -1.9651 H       
  56 H56            0.8874    -3.8254    -1.0485 H       
  57 H57           -3.6404    -3.4776    -1.1783 H       
  58 H58           -3.1809    -1.7954    -0.8050 H       
  59 H59           -4.6589    -2.0022    -2.8444 H       
  60 H60           -3.0848    -1.2429    -3.1842 H       
  61 H61           -1.6600    -4.1594    -4.8089 H       
  62 H62           -1.3707    -2.4758    -4.3070 H       
  63 H63           -0.1743    -3.9522    -2.7797 H       
  64 H64           -1.6551    -4.8994    -2.4786 H       
  65 H65           -3.6005    -1.9141    -5.5040 H       
  66 H66           -2.4099    -3.9011    -6.3523 H       
  67 H67           -3.7697    -4.9419    -5.8637 H       
  68 H68           -3.8998    -2.6663    -7.8947 H       
  69 H69           -3.9008    -4.4046    -8.2767 H       
  70 H70           -5.7841    -1.6878    -6.7505 H       
  71 H71           -7.1691    -2.7074    -6.2923 H       
  72 H72           -5.7501    -3.9134    -4.6613 H       
  73 H73           -5.7527    -2.1652    -4.3227 H       
  74 H74           -6.2304    -2.5407    -9.0008 H       
  75 H75           -5.9363    -4.2612    -9.3496 H       
  76 H76            3.5363    -1.3892    -1.9086 H       
  77 H77            5.1562    -4.1098     1.8846 H       
  78 H78            4.2369    -6.6077     3.2827 H       
  79 H79            3.8225    -8.9587     2.6842 H       
  80 H80           -0.2100    -8.0022     1.6802 H       
  81 H81           -1.9723    -5.0985     1.7418 H       
  82 H82           -1.1463    -6.3540     0.7879 H       
  83 H83           -1.6441    -6.6923     2.4630 H       
  84 H84           -8.3625    -3.7499    -9.3760 H       
  85 H85           -7.9601    -4.8701    -8.0526 H       
  86 H86           -8.2542    -3.1496    -7.7038 H       
  87 H87            3.2118    -0.5618    -4.1885 H       
  88 H88            1.5508    -0.9853    -4.6683 H       
  89 H89            2.2788     0.5383    -5.2314 H       
  90 H90            0.6523     0.8695    -3.3462 H       
  91 H91            2.2969     1.4213    -2.9476 H       
@<TRIPOS>BOND
   1    1    2 ar
   2    1    6 ar
   3    2    3 ar
   4    2   49 1
   5    3    4 ar
   6    3    7 1
   7    4    5 ar
   8    4   52 1
   9    5    6 ar
  10    5   53 1
  11    6   54 1
  12    7    8 1
  13    7    9 1
  14    7   27 1
  15    8   25 2
  16    8   26 am
  17    9   10 1
  18    9   55 1
  19    9   56 1
  20   10   11 am
  21   10   12 2
  22   11   13 1
  23   11   17 1
  24   13   14 1
  25   13   57 1
  26   13   58 1
  27   14   15 1
  28   14   59 1
  29   14   60 1
  30   15   16 1
  31   15   18 1
  32   16   17 1
  33   16   61 1
  34   16   62 1
  35   17   63 1
  36   17   64 1
  37   18   19 1
  38   18   23 1
  39   18   65 1
  40   19   20 1
  41   19   66 1
  42   19   67 1
  43   20   21 1
  44   20   68 1
  45   20   69 1
  46   21   22 1
  47   21   24 1
  48   22   23 1
  49   22   70 1
  50   22   71 1
  51   23   72 1
  52   23   73 1
  53   24   43 1
  54   24   74 1
  55   24   75 1
  56   26   46 am
  57   26   28 1
  58   27   28 ar
  59   27   29 ar
  60   28   32 ar
  61   29   30 ar
  62   29   76 1
  63   30   31 ar
  64   30   44 1
  65   31   32 ar
  66   31   33 1
  67   32   77 1
  68   34   35 ar
  69   34   36 ar
  70   34   46 1
  71   35   41 1
  72   35   39 ar
  73   36   37 ar
  74   36   78 1
  75   37   38 ar
  76   37   79 1
  77   38   39 ar
  78   38   40 1
  79   39   80 1
  80   41   42 1
  81   42   81 1
  82   42   82 1
  83   42   83 1
  84   43   84 1
  85   43   85 1
  86   43   86 1
  87   44   45 3
  88   46   47 2
  89   46   48 2
  90   49   51 1
  91   50   51 1
  92   50   87 1
  93   50   88 1
  94   50   89 1
  95   51   90 1
  96   51   91 1

#	End of record

