#	Name: ASD02500294
#	Creating user name:	WinNT
#	Creation time:	15. 06. 2019 20:22

#	Modifying user name:	WinNT
#	Modification time:	15. 06. 2019 20:22

#	Program:	/corina/corina34_cracker 3.40 0067  02.08.2006

@<TRIPOS>MOLECULE
ASD02500294
  71   75    0    0    0
SMALL
NO_CHARGES


@<TRIPOS>ATOM
   1 N1            -4.4623     5.0395    -2.4495 N.ar    
   2 C2            -5.3760     5.5364    -3.2473 C.ar    
   3 C3            -6.7364     5.3544    -3.0074 C.ar    
   4 C4            -7.1469     4.6417    -1.9171 C.ar    
   5 C5            -6.1629     4.1091    -1.0628 C.ar    
   6 C6            -6.5087     3.3662     0.0772 C.ar    
   7 C7            -5.5272     2.8681     0.8789 C.ar    
   8 C8            -4.1833     3.0861     0.5834 C.ar    
   9 C9            -3.8125     3.8017    -0.5134 C.ar    
  10 C10           -4.7966     4.3323    -1.3654 C.ar    
  11 S11           -2.1055     4.0630    -0.8633 S.o2    
  12 O12           -1.9575     5.4520    -1.1245 O.2     
  13 O13           -1.3793     3.3810     0.1499 O.2     
  14 N14           -1.7713     3.2817    -2.2846 N.am    
  15 C15           -1.8874     1.8982    -2.3614 C.ar    
  16 C16           -2.5524     1.3156    -3.4369 C.ar    
  17 C17           -2.6690    -0.0532    -3.5158 C.ar    
  18 C18           -2.1189    -0.8590    -2.5145 C.ar    
  19 C19           -1.4518    -0.2709    -1.4359 C.ar    
  20 C20           -1.3336     1.0983    -1.3657 C.ar    
  21 C21           -2.2425    -2.3267    -2.5958 C.2     
  22 O22           -3.2553    -2.8276    -3.0452 O.2     
  23 N23           -1.2329    -3.1125    -2.1720 N.am    
  24 C24           -0.0396    -2.5441    -1.4939 C.3     
  25 C25           -0.1712    -2.7083    -0.0504 C.3     
  26 N26           -0.4289    -4.1361     0.2684 N.am    
  27 C27           -1.7621    -4.6027     0.1130 C.3     
  28 C28           -2.0516    -5.3044    -1.2541 C.3     
  29 C29           -1.2653    -4.5222    -2.3487 C.3     
  30 C30            0.5583    -4.9530     0.6861 C.2     
  31 C31            1.9742    -4.4434     0.7677 C.3     
  32 C32            2.3558    -3.7829    -0.5586 C.3     
  33 O33            0.3072    -6.0983     0.9963 O.2     
  34 C34            2.0828    -3.4180     1.8980 C.3     
  35 C35            2.9073    -5.5945     1.0424 C.ar    
  36 C36            4.2669    -5.4313     0.8528 C.ar    
  37 C37            5.1174    -6.4953     1.1080 C.ar    
  38 C38            4.5654    -7.6916     1.5471 C.ar    
  39 C39            3.1941    -7.7795     1.7138 C.ar    
  40 N40            2.4174    -6.7430     1.4657 N.ar    
  41 F41            5.3562    -8.7555     1.8078 F       
  42 H42           -5.0660     6.1023    -4.1134 H       
  43 H43           -7.4656     5.7768    -3.6829 H       
  44 H44           -8.1973     4.4912    -1.7158 H       
  45 H45           -7.5470     3.1911     0.3170 H       
  46 H46           -5.7941     2.2967     1.7556 H       
  47 H47           -3.4235     2.6812     1.2353 H       
  48 H48           -1.4945     3.7892    -3.0636 H       
  49 H49           -2.9775     1.9387    -4.2099 H       
  50 H50           -3.1852    -0.5046    -4.3501 H       
  51 H51           -1.0260    -0.8907    -0.6607 H       
  52 H52           -0.8142     1.5530    -0.5351 H       
  53 H53            0.8549    -3.0632    -1.8380 H       
  54 H54            0.0425    -1.4837    -1.7324 H       
  55 H55            0.7500    -2.3883     0.4366 H       
  56 H56           -1.0013    -2.1006     0.3097 H       
  57 H57           -1.9763    -5.3088     0.9154 H       
  58 H58           -2.4388    -3.7543     0.2155 H       
  59 H59           -1.7114    -6.3393    -1.2193 H       
  60 H60           -3.1197    -5.2711    -1.4693 H       
  61 H61           -1.7222    -4.7384    -3.3144 H       
  62 H62           -0.2398    -4.8914    -2.3662 H       
  63 H63            1.8425    -2.8255    -0.6486 H       
  64 H64            3.4334    -3.6216    -0.5873 H       
  65 H65            2.0632    -4.4311    -1.3846 H       
  66 H66            1.7432    -3.8681     2.8308 H       
  67 H67            3.1207    -3.1022     2.0037 H       
  68 H68            1.4619    -2.5530     1.6647 H       
  69 H69            4.6613    -4.4863     0.5097 H       
  70 H70            6.1838    -6.3967     0.9683 H       
  71 H71            2.7558    -8.7057     2.0549 H       
@<TRIPOS>BOND
   1    1    2 ar
   2    1   10 ar
   3    2    3 ar
   4    2   42 1
   5    3    4 ar
   6    3   43 1
   7    4    5 ar
   8    4   44 1
   9    5    6 ar
  10    5   10 ar
  11    6    7 ar
  12    6   45 1
  13    7    8 ar
  14    7   46 1
  15    8    9 ar
  16    8   47 1
  17    9   10 ar
  18    9   11 1
  19   11   12 2
  20   11   13 2
  21   11   14 am
  22   14   15 1
  23   14   48 1
  24   15   16 ar
  25   15   20 ar
  26   16   17 ar
  27   16   49 1
  28   17   18 ar
  29   17   50 1
  30   18   19 ar
  31   18   21 1
  32   19   20 ar
  33   19   51 1
  34   20   52 1
  35   21   22 2
  36   21   23 am
  37   23   24 1
  38   23   29 1
  39   24   25 1
  40   24   53 1
  41   24   54 1
  42   25   26 1
  43   25   55 1
  44   25   56 1
  45   26   27 1
  46   26   30 am
  47   27   28 1
  48   27   57 1
  49   27   58 1
  50   28   29 1
  51   28   59 1
  52   28   60 1
  53   29   61 1
  54   29   62 1
  55   30   31 1
  56   30   33 2
  57   31   32 1
  58   31   34 1
  59   31   35 1
  60   32   63 1
  61   32   64 1
  62   32   65 1
  63   34   66 1
  64   34   67 1
  65   34   68 1
  66   35   36 ar
  67   35   40 ar
  68   36   37 ar
  69   36   69 1
  70   37   38 ar
  71   37   70 1
  72   38   39 ar
  73   38   41 1
  74   39   40 ar
  75   39   71 1

#	End of record

