#	Name: ASD05430729
#	Creating user name:	WinNT
#	Creation time:	15. 06. 2019 21:00

#	Modifying user name:	WinNT
#	Modification time:	15. 06. 2019 21:00

#	Program:	/corina/corina34_cracker 3.40 0067  02.08.2006

@<TRIPOS>MOLECULE
ASD05430729
  60   64    0    0    0
SMALL
NO_CHARGES


@<TRIPOS>ATOM
   1 C1            -0.0517     1.2195     0.0690 C.2     
   2 C2            -0.0956    -0.1648    -0.1386 C.2     
   3 C3            -1.3448    -0.7983    -0.2808 C.2     
   4 C4            -2.4762    -0.0671    -0.2156 C.2     
   5 N5            -2.4390     1.2810    -0.0142 N.am    
   6 C6            -1.2713     1.9372     0.1336 C.2     
   7 O7            -1.2642     3.1435     0.3127 O.2     
   8 C8            -3.6957     2.0314     0.0480 C.3     
   9 C9            -4.4815     1.8185    -1.2474 C.3     
  10 C10           -4.5133     1.5458     1.2171 C.ar    
  11 C11           -3.8833     1.1141     2.3694 C.ar    
  12 C12           -4.6333     0.6687     3.4417 C.ar    
  13 C13           -6.0133     0.6553     3.3620 C.ar    
  14 C14           -6.6433     1.0879     2.2101 C.ar    
  15 C15           -5.8935     1.5374     1.1394 C.ar    
  16 N16            1.2438     1.5706     0.1714 N.2     
  17 C17            1.9980     0.5056     0.0424 C.2     
  18 N18            1.2044    -0.5959    -0.1522 N.pl3   
  19 C19            3.4751     0.4941     0.0975 C.ar    
  20 C20            4.1763     1.6836     0.3017 C.ar    
  21 C21            5.5580     1.6682     0.3525 C.ar    
  22 C22            6.2473     0.4662     0.2000 C.ar    
  23 C23            5.5488    -0.7165    -0.0030 C.ar    
  24 C24            4.1710    -0.7075    -0.0488 C.ar    
  25 N25            7.6482     0.4515     0.2513 N.pl3   
  26 C26            8.4900     1.2608    -0.4424 C.2     
  27 N27            9.7184     0.9479    -0.1307 N.2     
  28 C28            9.7091    -0.0559     0.7587 C.2     
  29 C29            8.4270    -0.3783     1.0155 C.2     
  30 C30           10.9234    -0.7066     1.3695 C.3     
  31 S31           -6.9953     0.0709     4.7657 Du      
  32 F32           -7.9853     1.3293     4.5970 F       
  33 F33           -7.9167    -0.7884     3.7634 F       
  34 F34           -6.0053    -1.1874     4.9344 F       
  35 F35           -7.8688    -0.4489     6.0143 F       
  36 F36           -6.0739     0.9302     5.7680 F       
  37 O37            6.2441     2.8251     0.5508 O.3     
  38 C38            5.4732     4.0193     0.6985 C.3     
  39 H39           -1.3968    -1.8649    -0.4418 H       
  40 H40           -3.4312    -0.5593    -0.3256 H       
  41 H41           -3.4795     3.0926     0.1716 H       
  42 H42           -5.4165     2.3768    -1.2011 H       
  43 H43           -3.8901     2.1697    -2.0929 H       
  44 H44           -4.6977     0.7573    -1.3710 H       
  45 H45           -2.8052     1.1245     2.4316 H       
  46 H46           -4.1411     0.3307     4.3417 H       
  47 H47           -7.7215     1.0771     2.1477 H       
  48 H48           -6.3857     1.8753     0.2394 H       
  49 H49            1.5070    -1.5091    -0.2762 H       
  50 H50            3.6407     2.6140     0.4193 H       
  51 H51            6.0858    -1.6461    -0.1207 H       
  52 H52            3.6301    -1.6289    -0.2064 H       
  53 H53            8.1929     2.0335    -1.1360 H       
  54 H54            8.0793    -1.1470     1.6897 H       
  55 H55           11.1944    -0.1823     2.2859 H       
  56 H56           10.7003    -1.7485     1.5994 H       
  57 H57           11.7538    -0.6598     0.6650 H       
  58 H58            4.8789     4.1817    -0.2007 H       
  59 H59            4.8112     3.9203     1.5587 H       
  60 H60            6.1417     4.8668     0.8501 H       
@<TRIPOS>BOND
   1    1    2 2
   2    1   16 1
   3    1    6 1
   4    2    3 1
   5    2   18 1
   6    3    4 2
   7    3   39 1
   8    4    5 1
   9    4   40 1
  10    5    6 am
  11    5    8 1
  12    6    7 2
  13    8    9 1
  14    8   10 1
  15    8   41 1
  16    9   42 1
  17    9   43 1
  18    9   44 1
  19   10   11 ar
  20   10   15 ar
  21   11   12 ar
  22   11   45 1
  23   12   13 ar
  24   12   46 1
  25   13   14 ar
  26   13   31 1
  27   14   15 ar
  28   14   47 1
  29   15   48 1
  30   16   17 2
  31   17   18 1
  32   17   19 1
  33   18   49 1
  34   19   20 ar
  35   19   24 ar
  36   20   21 ar
  37   20   50 1
  38   21   22 ar
  39   21   37 1
  40   22   23 ar
  41   22   25 1
  42   23   24 ar
  43   23   51 1
  44   24   52 1
  45   25   26 1
  46   25   29 1
  47   26   27 2
  48   26   53 1
  49   27   28 1
  50   28   29 2
  51   28   30 1
  52   29   54 1
  53   30   55 1
  54   30   56 1
  55   30   57 1
  56   31   32 1
  57   31   33 1
  58   31   34 1
  59   31   35 1
  60   31   36 1
  61   37   38 1
  62   38   58 1
  63   38   59 1
  64   38   60 1

#	End of record

