#	Name: ASD03540148
#	Creating user name:	WinNT
#	Creation time:	15. 06. 2019 20:42

#	Modifying user name:	WinNT
#	Modification time:	15. 06. 2019 20:42

#	Program:	/corina/corina34_cracker 3.40 0067  02.08.2006

@<TRIPOS>MOLECULE
ASD03540148
  55   58    0    0    0
SMALL
NO_CHARGES


@<TRIPOS>ATOM
   1 C1             2.7507    -8.6909    -2.5525 C.2     
   2 C2             2.0599    -7.5583    -1.9027 C.ar    
   3 C3             0.6741    -7.5858    -1.7338 C.ar    
   4 C4             0.0354    -6.5250    -1.1257 C.ar    
   5 C5             0.7648    -5.4353    -0.6839 C.ar    
   6 C6             2.1382    -5.4014    -0.8485 C.ar    
   7 C7             2.7904    -6.4581    -1.4494 C.ar    
   8 O8             2.1131    -9.6489    -2.9413 O.2     
   9 O9             4.0871    -8.6588    -2.7189 O.3     
  10 C10            0.0601    -4.2800    -0.0210 C.3     
  11 C11           -2.2985    -4.3337     0.5370 C.2     
  12 N12           -3.3760    -4.7471     1.2268 N.am    
  13 C13           -3.2470    -5.6795     2.2434 C.ar    
  14 C14           -1.9670    -6.1844     2.5385 C.ar    
  15 C15           -0.8207    -5.6961     1.7499 C.2     
  16 N16           -1.0579    -4.7846     0.7800 N.am    
  17 C17           -4.3356    -6.1306     2.9790 C.ar    
  18 C18           -1.8316    -7.1197     3.5578 C.ar    
  19 C19           -2.9780    -7.5183     4.2468 C.ar    
  20 N20           -4.1696    -7.0173     3.9375 N.ar    
  21 O21            0.3048    -6.1009     1.9660 O.2     
  22 O22           -2.4557    -3.5178    -0.3506 O.2     
  23 C23            1.0423    -3.5360     0.8860 C.3     
  24 C24           -2.8689    -8.4804     5.3018 C.1     
  25 C25           -2.7795    -9.2692     6.1667 C.1     
  26 C26           -2.6674   -10.2583     7.2511 C.3     
  27 C27           -4.0319   -10.5212     7.8343 C.ar    
  28 C28           -4.8238   -11.5268     7.3114 C.ar    
  29 C29           -6.0750   -11.7698     7.8442 C.ar    
  30 C30           -6.5367   -11.0039     8.9048 C.ar    
  31 C31           -5.7401    -9.9955     9.4277 C.ar    
  32 C32           -4.4874    -9.7602     8.8950 C.ar    
  33 O33           -7.7674   -11.2407     9.4304 O.3     
  34 C34           -8.1772   -10.4133    10.5210 C.3     
  35 H35            0.1035    -8.4354    -2.0787 H       
  36 H36           -1.0364    -6.5450    -0.9944 H       
  37 H37            2.7015    -4.5475    -0.5021 H       
  38 H38            3.8630    -6.4325    -1.5729 H       
  39 H39            4.4944    -9.4229    -3.1494 H       
  40 H40           -0.3176    -3.5989    -0.7836 H       
  41 H41           -4.2514    -4.3893     1.0109 H       
  42 H42           -5.3235    -5.7513     2.7636 H       
  43 H43           -0.8640    -7.5278     3.8099 H       
  44 H44            1.8742    -3.1606     0.2900 H       
  45 H45            0.5326    -2.7004     1.3655 H       
  46 H46            1.4200    -4.2171     1.6486 H       
  47 H47           -2.2565   -11.1869     6.8549 H       
  48 H48           -2.0083    -9.8719     8.0286 H       
  49 H49           -4.4641   -12.1225     6.4855 H       
  50 H50           -6.6934   -12.5551     7.4351 H       
  51 H51           -6.0973    -9.3979    10.2533 H       
  52 H52           -3.8650    -8.9785     9.3048 H       
  53 H53           -7.4778   -10.5303    11.3487 H       
  54 H54           -8.1908    -9.3713    10.2014 H       
  55 H55           -9.1757   -10.7071    10.8447 H       
@<TRIPOS>BOND
   1    1    2 1
   2    1    8 2
   3    1    9 1
   4    2    3 ar
   5    2    7 ar
   6    3    4 ar
   7    3   35 1
   8    4    5 ar
   9    4   36 1
  10    5    6 ar
  11    5   10 1
  12    6    7 ar
  13    6   37 1
  14    7   38 1
  15    9   39 1
  16   10   16 1
  17   10   23 1
  18   10   40 1
  19   11   12 am
  20   11   16 am
  21   11   22 2
  22   12   13 1
  23   12   41 1
  24   13   14 ar
  25   13   17 ar
  26   14   15 1
  27   14   18 ar
  28   15   16 am
  29   15   21 2
  30   17   20 ar
  31   17   42 1
  32   18   19 ar
  33   18   43 1
  34   19   20 ar
  35   19   24 1
  36   23   44 1
  37   23   45 1
  38   23   46 1
  39   24   25 3
  40   25   26 1
  41   26   27 1
  42   26   47 1
  43   26   48 1
  44   27   28 ar
  45   27   32 ar
  46   28   29 ar
  47   28   49 1
  48   29   30 ar
  49   29   50 1
  50   30   31 ar
  51   30   33 1
  52   31   32 ar
  53   31   51 1
  54   32   52 1
  55   33   34 1
  56   34   53 1
  57   34   54 1
  58   34   55 1

#	End of record

