#	Name: ASD02030380
#	Creating user name:	WinNT
#	Creation time:	15. 06. 2019 20:15

#	Modifying user name:	WinNT
#	Modification time:	15. 06. 2019 20:15

#	Program:	/corina/corina34_cracker 3.40 0067  02.08.2006

@<TRIPOS>MOLECULE
ASD02030380
  62   66    0    0    0
SMALL
NO_CHARGES


@<TRIPOS>ATOM
   1 C1            -0.1934     1.7338    -1.3588 C.2     
   2 O2            -0.2142     0.5188    -1.3289 O.2     
   3 N3             0.9528     2.3947    -1.1019 N.am    
   4 C4             2.1502     1.6694    -0.6543 C.3     
   5 C5             3.3065     1.9973    -1.6071 C.3     
   6 N6             3.3815     3.4559    -1.7700 N.am    
   7 C7             2.1842     4.1812    -2.2176 C.3     
   8 C8             1.0295     3.8526    -1.2702 C.3     
   9 C9             2.5149     2.1073     0.7656 C.3     
  10 C10            1.8772     0.1641    -0.6770 C.3     
  11 C11            4.5277     4.1168    -1.5131 C.2     
  12 O12            5.5415     3.4978    -1.2568 O.2     
  13 C13            4.5516     5.5981    -1.5433 C.ar    
  14 C14            5.7589     6.2641    -1.7450 C.ar    
  15 C15            5.7729     7.6511    -1.7720 C.ar    
  16 C16            4.5798     8.3289    -1.5963 C.ar    
  17 C17            3.4029     7.6003    -1.3982 C.ar    
  18 N18            3.4232     6.2758    -1.3833 N.ar    
  19 C19            2.1231     8.3146    -1.2096 C.2     
  20 C20            1.9903     9.6298    -1.2126 C.2     
  21 N21           -3.4057     2.9244    -2.2821 N.pl3   
  22 N22           -2.5588     1.9701    -2.1024 N.2     
  23 C23           -1.4238     2.4865    -1.6830 C.2     
  24 N24           -1.5802     3.8205    -1.6010 N.2     
  25 C25           -2.8057     4.0919    -1.9714 C.2     
  26 C26           -4.7251     2.7753    -2.7303 C.ar    
  27 C27           -5.2217     1.5120    -3.0226 C.ar    
  28 C28           -6.5234     1.3683    -3.4645 C.ar    
  29 C29           -7.3308     2.4824    -3.6159 C.ar    
  30 C30           -6.8381     3.7409    -3.3254 C.ar    
  31 C31           -5.5398     3.8898    -2.8775 C.ar    
  32 Cl32          -7.1459    -0.2104    -3.8305 Cl      
  33 C33            0.7881     7.6403    -0.9937 C.3     
  34 C34           -0.1305     8.7516    -0.4361 C.3     
  35 C35            0.5483    10.0248    -0.9935 C.3     
  36 H36            4.2421     1.6274    -1.1877 H       
  37 H37            3.1265     1.5298    -2.5752 H       
  38 H38            2.3787     5.2536    -2.2014 H       
  39 H39            1.9244     3.8692    -3.2291 H       
  40 H40            0.0951     4.2217    -1.6930 H       
  41 H41            1.2077     4.3236    -0.3035 H       
  42 H42            1.6857     1.8871     1.4380 H       
  43 H43            3.4030     1.5682     1.0953 H       
  44 H44            2.7158     3.1786     0.7751 H       
  45 H45            1.5887    -0.1377    -1.6839 H       
  46 H46            2.7782    -0.3730    -0.3808 H       
  47 H47            1.0701    -0.0693     0.0175 H       
  48 H48            6.6741     5.7065    -1.8787 H       
  49 H49            6.6958     8.1903    -1.9264 H       
  50 H50            4.5577     9.4086    -1.6117 H       
  51 H51            2.8026    10.3277    -1.3521 H       
  52 H52           -3.2553     5.0727    -2.0193 H       
  53 H53           -4.5915     0.6428    -2.9052 H       
  54 H54           -8.3474     2.3683    -3.9620 H       
  55 H55           -7.4704     4.6084    -3.4444 H       
  56 H56           -5.1573     4.8730    -2.6462 H       
  57 H57            0.3966     7.2628    -1.9383 H       
  58 H58            0.8849     6.8299    -0.2711 H       
  59 H59           -1.1447     8.6503    -0.8225 H       
  60 H60           -0.1276     8.7503     0.6539 H       
  61 H61            0.4831    10.8373    -0.2699 H       
  62 H62            0.0879    10.3181    -1.9370 H       
@<TRIPOS>BOND
   1    1    2 2
   2    1    3 am
   3    1   23 1
   4    3    4 1
   5    3    8 1
   6    4    5 1
   7    4    9 1
   8    4   10 1
   9    5    6 1
  10    5   36 1
  11    5   37 1
  12    6    7 1
  13    6   11 am
  14    7    8 1
  15    7   38 1
  16    7   39 1
  17    8   40 1
  18    8   41 1
  19    9   42 1
  20    9   43 1
  21    9   44 1
  22   10   45 1
  23   10   46 1
  24   10   47 1
  25   11   12 2
  26   11   13 1
  27   13   14 ar
  28   13   18 ar
  29   14   15 ar
  30   14   48 1
  31   15   16 ar
  32   15   49 1
  33   16   17 ar
  34   16   50 1
  35   17   18 ar
  36   17   19 1
  37   19   20 2
  38   19   33 1
  39   20   35 1
  40   20   51 1
  41   21   22 1
  42   21   25 1
  43   21   26 1
  44   22   23 2
  45   23   24 1
  46   24   25 2
  47   25   52 1
  48   26   27 ar
  49   26   31 ar
  50   27   28 ar
  51   27   53 1
  52   28   29 ar
  53   28   32 1
  54   29   30 ar
  55   29   54 1
  56   30   31 ar
  57   30   55 1
  58   31   56 1
  59   33   34 1
  60   33   57 1
  61   33   58 1
  62   34   35 1
  63   34   59 1
  64   34   60 1
  65   35   61 1
  66   35   62 1

#	End of record

