#	Name: ASD01903302
#	Creating user name:	WinNT
#	Creation time:	15. 06. 2019 19:54

#	Modifying user name:	WinNT
#	Modification time:	15. 06. 2019 19:54

#	Program:	/corina/corina34_cracker 3.40 0067  02.08.2006

@<TRIPOS>MOLECULE
ASD01903302
  41   44    0    0    0
SMALL
NO_CHARGES


@<TRIPOS>ATOM
   1 N1            -0.0111     0.9658     0.0074 N.pl3   
   2 H2             0.0455    -0.0025     0.0035 H       
   3 C3             1.1475     1.7283    -0.0089 C.2     
   4 C4            -1.2545     1.5901     0.0234 C.ar    
   5 N5            -1.3256     2.9083     0.1244 N.ar    
   6 C6            -2.4844     3.5394     0.1428 C.ar    
   7 C7            -3.6722     2.8413     0.0566 C.ar    
   8 C8            -3.6413     1.4570    -0.0507 C.ar    
   9 C9            -2.4118     0.8239    -0.0726 C.ar    
  10 S10            2.7862     1.0911     0.0955 S.3     
  11 C11            3.4314     2.7211     0.0038 C.2     
  12 C12            2.3841     3.5913    -0.1090 C.2     
  13 N13            1.1925     3.0210    -0.1089 N.2     
  14 C14            4.8757     3.1440     0.0516 C.3     
  15 C15            5.1132     4.4148    -0.7659 C.3     
  16 C16            4.0080     5.4095    -0.5418 C.2     
  17 C17            2.7184     5.0412    -0.2440 C.2     
  18 N18            4.0291     6.7622    -0.5812 N.am    
  19 N19            2.7292     7.2254    -0.3192 N.2     
  20 C20            1.9467     6.1921    -0.1192 C.2     
  21 C21            5.1086     7.5305    -0.8280 C.2     
  22 C22            4.9784     9.0318    -0.8394 C.3     
  23 O23            6.1809     7.0155    -1.0400 O.2     
  24 C24            5.2308     9.5764     0.5679 C.3     
  25 C25            6.0038     9.6253    -1.8075 C.3     
  26 H26           -2.5037     4.6159     0.2267 H       
  27 H27           -4.6158     3.3663     0.0728 H       
  28 H28           -4.5567     0.8880    -0.1195 H       
  29 H29           -2.3512    -0.2512    -0.1555 H       
  30 H30            5.1590     3.3286     1.0878 H       
  31 H31            5.4955     2.3416    -0.3487 H       
  32 H32            6.0624     4.8604    -0.4684 H       
  33 H33            5.1549     4.1577    -1.8244 H       
  34 H34            0.8904     6.2282     0.1026 H       
  35 H35            3.9737     9.3069    -1.1607 H       
  36 H36            4.5003     9.1536     1.2576 H       
  37 H37            6.2354     9.3013     0.8891 H       
  38 H38            5.1366    10.6623     0.5596 H       
  39 H39            5.8239     9.2373    -2.8101 H       
  40 H40            5.9095    10.7112    -1.8158 H       
  41 H41            7.0084     9.3502    -1.4863 H       
@<TRIPOS>BOND
   1    1    2 1
   2    1    3 1
   3    1    4 1
   4    3   10 1
   5    3   13 2
   6    4    5 ar
   7    4    9 ar
   8    5    6 ar
   9    6    7 ar
  10    6   26 1
  11    7    8 ar
  12    7   27 1
  13    8    9 ar
  14    8   28 1
  15    9   29 1
  16   10   11 1
  17   11   12 2
  18   11   14 1
  19   12   13 1
  20   12   17 1
  21   14   15 1
  22   14   30 1
  23   14   31 1
  24   15   16 1
  25   15   32 1
  26   15   33 1
  27   16   17 2
  28   16   18 1
  29   17   20 1
  30   18   19 1
  31   18   21 am
  32   19   20 2
  33   20   34 1
  34   21   22 1
  35   21   23 2
  36   22   24 1
  37   22   25 1
  38   22   35 1
  39   24   36 1
  40   24   37 1
  41   24   38 1
  42   25   39 1
  43   25   40 1
  44   25   41 1

#	End of record

