#	Name: ASD01910017
#	Creating user name:	WinNT
#	Creation time:	15. 06. 2019 19:55

#	Modifying user name:	WinNT
#	Modification time:	15. 06. 2019 19:55

#	Program:	/corina/corina34_cracker 3.40 0067  02.08.2006

@<TRIPOS>MOLECULE
ASD01910017
  40   43    0    0    0
SMALL
NO_CHARGES


@<TRIPOS>ATOM
   1 N1            -0.0158     1.3125     0.0093 N.2     
   2 C2             0.0021    -0.0041     0.0020 C.2     
   3 C3             1.3450    -0.4256    -0.0131 C.2     
   4 C4             2.1291     0.6845    -0.0146 C.2     
   5 N5             1.3076     1.7709    -0.0009 N.pl3   
   6 C6            -1.1880    -0.8904     0.0091 C.ar    
   7 C7            -2.4687    -0.3414     0.0242 C.ar    
   8 C8            -3.5720    -1.1705     0.0307 C.ar    
   9 C9            -3.4083    -2.5440     0.0223 C.ar    
  10 C10           -2.1394    -3.0943     0.0077 C.ar    
  11 C11           -1.0290    -2.2746    -0.0052 C.ar    
  12 C12            1.7149     3.1112     0.0020 C.ar    
  13 C13            0.9685     4.0666    -0.6751 C.ar    
  14 C14            1.3726     5.3873    -0.6704 C.ar    
  15 C15            2.5193     5.7586     0.0076 C.ar    
  16 C16            3.2647     4.8095     0.6828 C.ar    
  17 C17            2.8627     3.4882     0.6867 C.ar    
  18 N18            3.5224     0.7072    -0.0274 N.am    
  19 C19            4.2151    -0.4488    -0.0402 C.2     
  20 C20            5.6802    -0.4250    -0.0537 C.2     
  21 O21            3.6237    -1.5127    -0.0407 O.2     
  22 C22            6.4911    -1.5251    -0.0673 C.2     
  23 C23            7.8300    -1.2135    -0.0780 C.2     
  24 C24            8.1083     0.0954    -0.0732 C.2     
  25 S25            6.6768     1.0236    -0.0624 S.3     
  26 H26            1.6907    -1.4487    -0.0219 H       
  27 H27           -2.5976     0.7308     0.0311 H       
  28 H28           -4.5651    -0.7461     0.0428 H       
  29 H29           -4.2745    -3.1891     0.0275 H       
  30 H30           -2.0173    -4.1674     0.0019 H       
  31 H31           -0.0387    -2.7054    -0.0165 H       
  32 H32            0.0731     3.7772    -1.2051 H       
  33 H33            0.7928     6.1308    -1.1971 H       
  34 H34            2.8334     6.7919     0.0095 H       
  35 H35            4.1599     5.1025     1.2111 H       
  36 H36            3.4453     2.7474     1.2142 H       
  37 H37            3.9937     1.5550    -0.0270 H       
  38 H38            6.1172    -2.5383    -0.0690 H       
  39 H39            8.6008    -1.9699    -0.0890 H       
  40 H40            9.1059     0.5090    -0.0801 H       
@<TRIPOS>BOND
   1    1    2 2
   2    1    5 1
   3    2    3 1
   4    2    6 1
   5    3    4 2
   6    3   26 1
   7    4    5 1
   8    4   18 1
   9    5   12 1
  10    6    7 ar
  11    6   11 ar
  12    7    8 ar
  13    7   27 1
  14    8    9 ar
  15    8   28 1
  16    9   10 ar
  17    9   29 1
  18   10   11 ar
  19   10   30 1
  20   11   31 1
  21   12   13 ar
  22   12   17 ar
  23   13   14 ar
  24   13   32 1
  25   14   15 ar
  26   14   33 1
  27   15   16 ar
  28   15   34 1
  29   16   17 ar
  30   16   35 1
  31   17   36 1
  32   18   19 am
  33   18   37 1
  34   19   20 1
  35   19   21 2
  36   20   22 2
  37   20   25 1
  38   22   23 1
  39   22   38 1
  40   23   24 2
  41   23   39 1
  42   24   25 1
  43   24   40 1

#	End of record

