#	Name: ASD01913336
#	Creating user name:	WinNT
#	Creation time:	15. 06. 2019 20:01

#	Modifying user name:	WinNT
#	Modification time:	15. 06. 2019 20:01

#	Program:	/corina/corina34_cracker 3.40 0067  02.08.2006

@<TRIPOS>MOLECULE
ASD01913336
  29   31    0    0    0
SMALL
NO_CHARGES


@<TRIPOS>ATOM
   1 C1            -0.0166     1.3765     0.0096 C.2     
   2 C2             0.0021    -0.0041     0.0020 C.2     
   3 C3             1.2499    -0.6727    -0.0135 C.2     
   4 N4             2.3635     0.0159    -0.0204 N.2     
   5 C5             2.3514     1.3566    -0.0131 C.2     
   6 N6             1.1686     2.0507     0.0019 N.pl3   
   7 C7            -1.2215    -0.7480     0.0102 C.1     
   8 C8            -2.2246    -1.3579     0.0169 C.1     
   9 C9            -3.4482    -2.1018     0.0250 C.ar    
  10 C10           -4.6022    -4.2091     0.0247 C.ar    
  11 C11           -5.8501    -2.1563     0.0423 C.ar    
  12 C12           -4.6756    -1.4338     0.0349 C.ar    
  13 C13            3.3712     2.2994    -0.0178 C.2     
  14 C14            2.7832     3.5557    -0.0054 C.2     
  15 N15            1.4768     3.4160     0.0063 N.2     
  16 C16            3.5232     4.8685    -0.0050 C.3     
  17 C17           -3.4202    -3.4989     0.0172 C.ar    
  18 C18           -5.8152    -3.5408     0.0399 C.ar    
  19 Cl19          -7.2985    -4.4427     0.0492 Cl      
  20 H20           -0.9539     1.9131     0.0170 H       
  21 H21            1.2833    -1.7522    -0.0192 H       
  22 H22           -4.5819    -5.2890     0.0229 H       
  23 H23           -6.7994    -1.6413     0.0503 H       
  24 H24           -4.7043    -0.3542     0.0372 H       
  25 H25            4.4310     2.0918    -0.0287 H       
  26 H26            3.6921     5.1907    -1.0325 H       
  27 H27            2.9311     5.6191     0.5185 H       
  28 H28            4.4816     4.7452     0.4994 H       
  29 H29           -2.4750    -4.0213     0.0051 H       
@<TRIPOS>BOND
   1    1    2 2
   2    1    6 1
   3    1   20 1
   4    2    3 1
   5    2    7 1
   6    3    4 2
   7    3   21 1
   8    4    5 1
   9    5    6 1
  10    5   13 2
  11    6   15 1
  12    7    8 3
  13    8    9 1
  14    9   17 ar
  15    9   12 ar
  16   10   18 ar
  17   10   17 ar
  18   10   22 1
  19   11   12 ar
  20   11   18 ar
  21   11   23 1
  22   12   24 1
  23   13   14 1
  24   13   25 1
  25   14   15 2
  26   14   16 1
  27   16   26 1
  28   16   27 1
  29   16   28 1
  30   17   29 1
  31   18   19 1

#	End of record

