#	Name: ASD07730023
#	Creating user name:	WinNT
#	Creation time:	15. 06. 2019 21:11

#	Modifying user name:	WinNT
#	Modification time:	15. 06. 2019 21:11

#	Program:	/corina/corina34_cracker 3.40 0067  02.08.2006

@<TRIPOS>MOLECULE
ASD07730023
  31   34    0    0    0
SMALL
NO_CHARGES


@<TRIPOS>ATOM
   1 C1            -0.0166     1.3744     0.0096 C.ar    
   2 C2             0.0021    -0.0041     0.0020 C.ar    
   3 C3             1.2174    -0.6778    -0.0132 C.ar    
   4 C4             0.6898    -3.0428    -0.0213 C.2     
   5 C5             1.1838    -4.4284    -0.0334 C.2     
   6 C6             2.7713    -5.9919    -0.0618 C.2     
   7 C7             4.1366    -6.5572    -0.0832 C.2     
   8 C8             4.3885    -7.9315    -0.0924 C.2     
   9 C9             1.1676     2.0974     0.0022 C.ar    
  10 C10            2.3736     1.4538    -0.0132 C.ar    
  11 C11            2.4146     0.0589    -0.0206 C.ar    
  12 C12            2.9308    -2.1411    -0.0374 C.2     
  13 C13            0.3540    -5.4951    -0.0316 C.2     
  14 C14            5.6835    -8.2388    -0.1125 C.2     
  15 C15            3.5000    -0.9275    -0.0363 C.2     
  16 C16            5.2443    -5.7921    -0.1012 C.2     
  17 N17            1.5629    -2.0160    -0.0237 N.am    
  18 N18            2.4840    -4.7253    -0.0526 N.2     
  19 O19           -0.5062    -2.8239    -0.0091 O.2     
  20 S20            1.2829    -6.9305    -0.0486 S.3     
  21 S21            6.6442    -6.7674    -0.1206 S.3     
  22 H22           -0.9620     1.8964     0.0169 H       
  23 H23           -0.9247    -0.5585     0.0082 H       
  24 H24            3.6054    -8.6752    -0.0839 H       
  25 H25            1.1364     3.1769     0.0083 H       
  26 H26            3.2915     2.0229    -0.0196 H       
  27 H27            3.4679    -3.0781    -0.0478 H       
  28 H28           -0.7250    -5.4483    -0.0211 H       
  29 H29            6.0837    -9.2419    -0.1218 H       
  30 H30            4.5590    -0.7157    -0.0455 H       
  31 H31            5.2464    -4.7121    -0.1016 H       
@<TRIPOS>BOND
   1    1    2 ar
   2    1    9 ar
   3    1   22 1
   4    2    3 ar
   5    2   23 1
   6    3   11 ar
   7    3   17 1
   8    4    5 1
   9    4   17 am
  10    4   19 2
  11    5   13 2
  12    5   18 1
  13    6    7 1
  14    6   18 2
  15    6   20 1
  16    7    8 1
  17    7   16 2
  18    8   14 2
  19    8   24 1
  20    9   10 ar
  21    9   25 1
  22   10   11 ar
  23   10   26 1
  24   11   15 1
  25   12   15 2
  26   12   17 1
  27   12   27 1
  28   13   20 1
  29   13   28 1
  30   14   21 1
  31   14   29 1
  32   15   30 1
  33   16   21 1
  34   16   31 1

#	End of record

