#	Name: ASD05430164
#	Creating user name:	WinNT
#	Creation time:	15. 06. 2019 20:59

#	Modifying user name:	WinNT
#	Modification time:	15. 06. 2019 20:59

#	Program:	/corina/corina34_cracker 3.40 0067  02.08.2006

@<TRIPOS>MOLECULE
ASD05430164
  63   68    0    0    0
SMALL
NO_CHARGES


@<TRIPOS>ATOM
   1 C1            -0.0102     1.3700    -0.1552 C.ar    
   2 C2             0.0204    -0.0143    -0.3187 C.ar    
   3 C3             1.2360    -0.6826    -0.3844 C.ar    
   4 C4             2.4181     0.0192    -0.2878 C.ar    
   5 C5             2.3953     1.4081    -0.1236 C.ar    
   6 C6             1.1713     2.0808    -0.0580 C.ar    
   7 O7             4.8687     0.1431     0.2399 O.3     
   8 C8             4.8303     1.4988     0.0683 C.2     
   9 C9             3.6564     2.1594    -0.0198 C.2     
  10 C10            6.0892    -0.4023     0.7515 C.3     
  11 C11            6.9457     0.5534     1.5923 C.3     
  12 N12            7.1425     1.7862     0.8269 N.pl3   
  13 C13            6.1200     2.2152    -0.0169 C.2     
  14 N14           -1.1794    -0.7337    -0.4167 N.pl3   
  15 C15           -1.5008    -1.6549    -1.3795 C.2     
  16 C16           -2.7403    -2.0990    -1.0962 C.2     
  17 N17           -3.1683    -1.4696     0.0080 N.2     
  18 C18           -2.2399    -0.6535     0.4278 C.2     
  19 C19           -3.5130    -3.1252    -1.8843 C.3     
  20 C20            8.3625     2.5841     0.9350 C.3     
  21 C21            8.6872     3.1606    -0.4475 C.3     
  22 O22            7.5518     3.8428    -0.9701 O.3     
  23 N23            6.3112     3.1865    -0.8477 N.2     
  24 C24            8.1488     3.7079     1.9160 C.ar    
  25 C25            9.1731     4.5978     2.1808 C.ar    
  26 C26            6.9267     3.8516     2.5462 C.ar    
  27 C27            6.7293     4.8823     3.4454 C.ar    
  28 C28            7.7561     5.7710     3.7153 C.ar    
  29 C29            8.9781     5.6290     3.0799 C.ar    
  30 F30            7.5643     6.7790     4.5942 F       
  31 C31           -1.1586     3.4398     0.0718 C.3     
  32 O32           -1.2021     2.0214    -0.0970 O.3     
  33 C33            9.5171     1.6987     1.4081 C.3     
  34 O34           10.7071     2.4830     1.5122 O.3     
  35 C35            6.0894    -1.8792     1.1490 C.3     
  36 C36            6.8231    -1.4264    -0.1150 C.3     
  37 H37            1.2550    -1.7550    -0.5111 H       
  38 H38            3.3620    -0.5032    -0.3384 H       
  39 H39            1.1491     3.1532     0.0683 H       
  40 H40            3.6428     3.2393    -0.0140 H       
  41 H41            6.4338     0.7793     2.5278 H       
  42 H42            7.9111     0.0933     1.8027 H       
  43 H43           -0.8795    -1.9647    -2.2068 H       
  44 H44           -2.3069    -0.0160     1.2971 H       
  45 H45           -3.2988    -4.1200    -1.4937 H       
  46 H46           -4.5803    -2.9225    -1.7965 H       
  47 H47           -3.2187    -3.0753    -2.9326 H       
  48 H48            9.5205     3.8580    -0.3619 H       
  49 H49            8.9639     2.3499    -1.1215 H       
  50 H50           10.1261     4.4869     1.6850 H       
  51 H51            6.1259     3.1582     2.3355 H       
  52 H52            5.7743     4.9947     3.9371 H       
  53 H53            9.7799     6.3214     3.2899 H       
  54 H54           -0.6481     3.6792     1.0046 H       
  55 H55           -0.6200     3.8886    -0.7628 H       
  56 H56           -2.1747     3.8333     0.1022 H       
  57 H57            9.2745     1.2755     2.3829 H       
  58 H58            9.6744     0.8929     0.6912 H       
  59 H59           11.4816     1.9852     1.8078 H       
  60 H60            6.6963    -2.1696     2.0066 H       
  61 H61            5.1608    -2.4353     1.0201 H       
  62 H62            6.3772    -1.6847    -1.0756 H       
  63 H63            7.9128    -1.4190    -0.0891 H       
@<TRIPOS>BOND
   1    1    2 ar
   2    1    6 ar
   3    1   32 1
   4    2    3 ar
   5    2   14 1
   6    3    4 ar
   7    3   37 1
   8    4    5 ar
   9    4   38 1
  10    5    6 ar
  11    5    9 1
  12    6   39 1
  13    7    8 1
  14    7   10 1
  15    8    9 2
  16    8   13 1
  17    9   40 1
  18   10   11 1
  19   10   35 1
  20   10   36 1
  21   11   12 1
  22   11   41 1
  23   11   42 1
  24   12   13 1
  25   12   20 1
  26   13   23 2
  27   14   15 1
  28   14   18 1
  29   15   16 2
  30   15   43 1
  31   16   17 1
  32   16   19 1
  33   17   18 2
  34   18   44 1
  35   19   45 1
  36   19   46 1
  37   19   47 1
  38   20   21 1
  39   20   24 1
  40   20   33 1
  41   21   22 1
  42   21   48 1
  43   21   49 1
  44   22   23 1
  45   24   25 ar
  46   24   26 ar
  47   25   29 ar
  48   25   50 1
  49   26   27 ar
  50   26   51 1
  51   27   28 ar
  52   27   52 1
  53   28   29 ar
  54   28   30 1
  55   29   53 1
  56   31   32 1
  57   31   54 1
  58   31   55 1
  59   31   56 1
  60   33   34 1
  61   33   57 1
  62   33   58 1
  63   34   59 1
  64   35   36 1
  65   35   60 1
  66   35   61 1
  67   36   62 1
  68   36   63 1

#	End of record

