#	Name: ASD01816367
#	Creating user name:	WinNT
#	Creation time:	15. 06. 2019 19:35

#	Modifying user name:	WinNT
#	Modification time:	15. 06. 2019 19:35

#	Program:	/corina/corina34_cracker 3.40 0067  02.08.2006

@<TRIPOS>MOLECULE
ASD01816367
  52   58    0    0    0
SMALL
NO_CHARGES


@<TRIPOS>ATOM
   1 C1            -0.0167     1.3813     0.0096 C.ar    
   2 C2             0.0021    -0.0041     0.0020 C.ar    
   3 C3             1.1983    -0.6909    -0.0127 C.ar    
   4 C4             2.4015     0.0060    -0.0200 C.ar    
   5 C5             2.3790     1.4106    -0.0127 C.ar    
   6 C6             1.1663     2.0917     0.0022 C.ar    
   7 N7             3.6052    -0.6771    -0.0338 N.pl3   
   8 C8             4.7970    -0.0585    -0.0409 C.2     
   9 C9             4.8999     1.3103    -0.0354 C.2     
  10 C10            3.6670     2.1302    -0.0207 C.2     
  11 C11            5.9971     2.2731    -0.0405 C.2     
  12 N12            5.4245     3.4962    -0.0302 N.am    
  13 N13            4.0322     3.3799    -0.0184 N.2     
  14 O14            7.1911     2.0232    -0.0515 O.2     
  15 C15            3.5778    -2.1419    -0.0404 C.3     
  16 C16            3.5559    -2.6374    -1.4634 C.ar    
  17 C17            4.7440    -2.8867    -2.1256 C.ar    
  18 C18            4.7272    -3.3405    -3.4300 C.ar    
  19 C19            3.5157    -3.5469    -4.0761 C.ar    
  20 C20            2.3245    -3.2961    -3.4085 C.ar    
  21 C21            2.3477    -2.8474    -2.1024 C.ar    
  22 N22            3.4954    -4.0070    -5.4001 N.pl3   
  23 C23            2.3908    -4.2482    -6.1420 C.2     
  24 C24            2.7978    -4.6776    -7.3589 C.2     
  25 C25            4.1969    -4.6999    -7.3621 C.2     
  26 N26            4.6158    -4.2926    -6.1910 N.2     
  27 C27            6.1210     4.6993    -0.0300 C.ar    
  28 N28            7.4492     4.7155    -0.0461 N.ar    
  29 C29            5.4368     5.9255    -0.0187 C.ar    
  30 C30            6.1960     7.1093    -0.0197 C.ar    
  31 N31            7.5216     7.0258    -0.0317 N.ar    
  32 C32            8.1196     5.8530    -0.0466 C.ar    
  33 N33            4.1321     6.2886    -0.0062 N.2     
  34 C34            4.0436     7.5872     0.0004 C.2     
  35 N35            5.2897     8.1394    -0.0074 N.pl3   
  36 H36           -0.9602     1.9068     0.0170 H       
  37 H37           -0.9289    -0.5515     0.0080 H       
  38 H38            1.2003    -1.7709    -0.0181 H       
  39 H39            1.1506     3.1715     0.0081 H       
  40 H40            5.6983    -0.6535    -0.0509 H       
  41 H41            4.4654    -2.5241     0.4639 H       
  42 H42            2.6858    -2.4909     0.4797 H       
  43 H43            5.6860    -2.7260    -1.6225 H       
  44 H44            5.6554    -3.5344    -3.9469 H       
  45 H45            1.3807    -3.4554    -3.9086 H       
  46 H46            1.4215    -2.6522    -1.5825 H       
  47 H47            1.3675    -4.1215    -5.8206 H       
  48 H48            2.1562    -4.9542    -8.1824 H       
  49 H49            4.8233    -4.9977    -8.1900 H       
  50 H50            9.1991     5.8201    -0.0557 H       
  51 H51            3.1189     8.1450     0.0110 H       
  52 H52            5.4976     9.0868    -0.0049 H       
@<TRIPOS>BOND
   1    1    2 ar
   2    1    6 ar
   3    1   36 1
   4    2    3 ar
   5    2   37 1
   6    3    4 ar
   7    3   38 1
   8    4    5 ar
   9    4    7 1
  10    5    6 ar
  11    5   10 1
  12    6   39 1
  13    7    8 1
  14    7   15 1
  15    8    9 2
  16    8   40 1
  17    9   10 1
  18    9   11 1
  19   10   13 2
  20   11   12 am
  21   11   14 2
  22   12   13 1
  23   12   27 1
  24   15   16 1
  25   15   41 1
  26   15   42 1
  27   16   17 ar
  28   16   21 ar
  29   17   18 ar
  30   17   43 1
  31   18   19 ar
  32   18   44 1
  33   19   20 ar
  34   19   22 1
  35   20   21 ar
  36   20   45 1
  37   21   46 1
  38   22   23 1
  39   22   26 1
  40   23   24 2
  41   23   47 1
  42   24   25 1
  43   24   48 1
  44   25   26 2
  45   25   49 1
  46   27   29 ar
  47   27   28 ar
  48   28   32 ar
  49   29   30 ar
  50   29   33 1
  51   30   31 ar
  52   30   35 1
  53   31   32 ar
  54   32   50 1
  55   33   34 2
  56   34   35 1
  57   34   51 1
  58   35   52 1

#	End of record

