#	Name: ASD00960044
#	Creating user name:	WinNT
#	Creation time:	15. 06. 2019 18:53

#	Modifying user name:	WinNT
#	Modification time:	15. 06. 2019 18:53

#	Program:	/corina/corina34_cracker 3.40 0067  02.08.2006

@<TRIPOS>MOLECULE
ASD00960044
  39   41    0    0    0
SMALL
NO_CHARGES


@<TRIPOS>ATOM
   1 F1             1.5305     0.0952    -0.8626 F       
   2 C2             0.0254     1.9428    -0.4377 C.3     
   3 C3             0.1845     0.4233    -0.6683 C.3     
   4 C4            -0.3445    -0.2118     0.6368 C.3     
   5 O5            -1.2376     0.7775     1.1931 O.3     
   6 C6            -0.5809     2.0459     0.9794 C.3     
   7 C7            -1.5962     3.1887     1.0424 C.3     
   8 C8            -1.0935    -1.4842     0.3350 C.2     
   9 C9            -0.5305    -2.7033     0.1849 C.2     
  10 N10           -2.4377    -1.5827     0.1780 N.pl3   
  11 C11           -2.7592    -2.8894    -0.0846 C.2     
  12 C12           -1.5674    -3.6248    -0.0865 C.2     
  13 N13           -3.4760    -0.6413     0.2359 N.2     
  14 C14           -4.7122    -1.0176     0.0421 C.2     
  15 N15           -5.0355    -2.2815    -0.2132 N.2     
  16 C16           -4.1147    -3.2285    -0.2849 C.2     
  17 O17           -2.1128     3.2942     2.3706 O.3     
  18 N18           -4.4758    -4.5349    -0.5519 N.pl3   
  19 C19           -0.6542    -0.0279    -1.8658 C.3     
  20 C20           -1.4237    -5.0655    -0.3231 C.2     
  21 O21           -2.1225    -5.6188    -1.1518 O.2     
  22 N22           -0.5177    -5.7763     0.3771 N.am    
  23 O23            1.2972     2.5925    -0.4867 O.3     
  24 *24            1.2437     3.9237    -0.9484 Du      
  25 H25           -0.6507     2.3725    -1.1768 H       
  26 H26            0.4786    -0.4089     1.3237 H       
  27 H27            0.2060     2.1951     1.7188 H       
  28 H28           -1.1085     4.1237     0.7670 H       
  29 H29           -2.4133     2.9873     0.3497 H       
  30 H30            0.5223    -2.9324     0.2587 H       
  31 H31           -5.4972    -0.2775     0.0912 H       
  32 H32           -2.7639     4.0000     2.4845 H       
  33 H33           -5.3333    -4.7268    -0.9627 H       
  34 H34           -3.8718    -5.2603    -0.3286 H       
  35 H35           -0.3085     0.4829    -2.7645 H       
  36 H36           -0.5499    -1.1050    -1.9972 H       
  37 H37           -1.7015     0.2168    -1.6888 H       
  38 H38            0.0393    -5.3354     1.0376 H       
  39 H39           -0.4227    -6.7289     0.2207 H       
@<TRIPOS>BOND
   1    1    3 1
   2    2    3 1
   3    2   23 1
   4    2    6 1
   5    2   25 1
   6    3   19 1
   7    3    4 1
   8    4    5 1
   9    4    8 1
  10    4   26 1
  11    5    6 1
  12    6    7 1
  13    6   27 1
  14    7   17 1
  15    7   28 1
  16    7   29 1
  17    8    9 2
  18    8   10 1
  19    9   12 1
  20    9   30 1
  21   10   11 1
  22   10   13 1
  23   11   12 2
  24   11   16 1
  25   12   20 1
  26   13   14 2
  27   14   15 1
  28   14   31 1
  29   15   16 2
  30   16   18 1
  31   17   32 1
  32   18   33 1
  33   18   34 1
  34   19   35 1
  35   19   36 1
  36   19   37 1
  37   20   21 2
  38   20   22 am
  39   22   38 1
  40   22   39 1
  41   23   24 1

#	End of record

