#	Name: ASD01148312
#	Creating user name:	WinNT
#	Creation time:	15. 06. 2019 19:02

#	Modifying user name:	WinNT
#	Modification time:	15. 06. 2019 19:02

#	Program:	/corina/corina34_cracker 3.40 0067  02.08.2006

@<TRIPOS>MOLECULE
ASD01148312
  61   64    0    0    0
SMALL
NO_CHARGES


@<TRIPOS>ATOM
   1 C1            -0.1536     2.6540    -0.6682 C.ar    
   2 C2             0.3295     1.3609    -0.7416 C.ar    
   3 C3            -0.5262     0.2916    -0.5538 C.ar    
   4 C4            -1.8650     0.5154    -0.2922 C.ar    
   5 C5            -2.3480     1.8085    -0.2179 C.ar    
   6 C6            -1.4914     2.8778    -0.4013 C.ar    
   7 C7            -3.8076     2.0524     0.0668 C.3     
   8 O8            -4.3500     1.0139     0.9075 O.3     
   9 C9            -3.9969     3.3064     0.9533 C.3     
  10 C10           -4.0412     2.7185     2.3509 C.2     
  11 N11           -4.2355     1.4464     2.2488 N.2     
  12 C12           -3.8883     3.4715     3.6112 C.ar    
  13 C13           -3.9502     2.8028     4.8365 C.ar    
  14 C14           -3.6760     4.8522     3.5787 C.ar    
  15 C15           -3.5331     5.5544     4.7539 C.ar    
  16 C16           -3.6002     4.8865     5.9794 C.ar    
  17 C17           -3.8072     3.5050     6.0117 C.ar    
  18 C18           -3.4468     5.6400     7.2406 C.2     
  19 O19           -2.4424     6.2946     7.4389 O.2     
  20 N20           -4.4209     5.6016     8.1713 N.am    
  21 C21           -4.6033     2.1753    -1.2342 C.3     
  22 F22           -4.4668     0.9979    -1.9773 F       
  23 F23           -5.9541     2.3849    -0.9366 F       
  24 F24           -4.1166     3.2554    -1.9783 F       
  25 C25           -4.2127     6.2345     9.4760 C.3     
  26 C26           -4.6726     7.6685     9.4177 C.ar    
  27 N27           -3.8506     8.5989     8.9734 N.ar    
  28 C28           -5.5864     4.9808     7.9017 C.2     
  29 C29           -4.2096     9.8661     8.9047 C.ar    
  30 C30           -5.4718    10.2656     9.3005 C.ar    
  31 C31           -6.3641     9.3153     9.7735 C.ar    
  32 C32           -5.9530     7.9924     9.8254 C.ar    
  33 O33           -5.8016     4.5506     6.7864 O.2     
  34 O34           -6.5119     4.8375     8.8685 O.3     
  35 C35           -7.7434     4.1588     8.5067 C.3     
  36 C36            0.7792     3.8197    -0.8729 C.3     
  37 F37            2.0716     3.3448    -1.1206 F       
  38 F38            0.3442     4.5789    -1.9645 F       
  39 F39            0.7878     4.6175     0.2763 F       
  40 C40            0.0004    -1.1181    -0.6348 C.3     
  41 F41            1.3722    -1.0885    -0.9077 F       
  42 F42           -0.2187    -1.7685     0.5843 F       
  43 F43           -0.6635    -1.8059    -1.6563 F       
  44 H44            1.3755     1.1861    -0.9460 H       
  45 H45           -2.5336    -0.3201    -0.1462 H       
  46 H46           -1.8688     3.8881    -0.3433 H       
  47 H47           -3.1522     3.9870     0.8464 H       
  48 H48           -4.9337     3.8105     0.7157 H       
  49 H49           -4.1105     1.7351     4.8615 H       
  50 H50           -3.6238     5.3684     2.6315 H       
  51 H51           -3.3686     6.6215     4.7288 H       
  52 H52           -3.8591     2.9887     6.9589 H       
  53 H53           -4.7847     5.7001    10.2345 H       
  54 H54           -3.1533     6.2028     9.7304 H       
  55 H55           -3.5088    10.6000     8.5351 H       
  56 H56           -5.7596    11.3049     9.2425 H       
  57 H57           -7.3570     9.5985    10.0901 H       
  58 H58           -6.6218     7.2258    10.1879 H       
  59 H59           -8.2390     4.7076     7.7058 H       
  60 H60           -7.5153     3.1483     8.1676 H       
  61 H61           -8.4006     4.1110     9.3750 H       
@<TRIPOS>BOND
   1    1    2 ar
   2    1   36 1
   3    1    6 ar
   4    2    3 ar
   5    2   44 1
   6    3    4 ar
   7    3   40 1
   8    4    5 ar
   9    4   45 1
  10    5    6 ar
  11    5    7 1
  12    6   46 1
  13    7    8 1
  14    7    9 1
  15    7   21 1
  16    8   11 1
  17    9   10 1
  18    9   47 1
  19    9   48 1
  20   10   11 2
  21   10   12 1
  22   12   13 ar
  23   12   14 ar
  24   13   17 ar
  25   13   49 1
  26   14   15 ar
  27   14   50 1
  28   15   16 ar
  29   15   51 1
  30   16   17 ar
  31   16   18 1
  32   17   52 1
  33   18   19 2
  34   18   20 am
  35   20   25 1
  36   20   28 am
  37   21   22 1
  38   21   23 1
  39   21   24 1
  40   25   26 1
  41   25   53 1
  42   25   54 1
  43   26   27 ar
  44   26   32 ar
  45   27   29 ar
  46   28   33 2
  47   28   34 1
  48   29   30 ar
  49   29   55 1
  50   30   31 ar
  51   30   56 1
  52   31   32 ar
  53   31   57 1
  54   32   58 1
  55   34   35 1
  56   35   59 1
  57   35   60 1
  58   35   61 1
  59   36   37 1
  60   36   38 1
  61   36   39 1
  62   40   41 1
  63   40   42 1
  64   40   43 1

#	End of record

