#	Name: ASD02690042
#	Creating user name:	WinNT
#	Creation time:	15. 06. 2019 20:26

#	Modifying user name:	WinNT
#	Modification time:	15. 06. 2019 20:26

#	Program:	/corina/corina34_cracker 3.40 0067  02.08.2006

@<TRIPOS>MOLECULE
ASD02690042
  57   60    0    0    0
SMALL
NO_CHARGES


@<TRIPOS>ATOM
   1 C1             0.6422    -0.2190    -0.0070 C.2     
   2 O2            -0.0592    -0.0598    -0.9835 O.2     
   3 N3             4.0242     2.2107    -0.8694 N.3     
   4 C4             4.0070     0.8714    -1.4715 C.3     
   5 C5             2.5777     0.3246    -1.4617 C.3     
   6 C6             2.0702     0.2623    -0.0183 C.3     
   7 C7             2.1439     1.6606     0.6011 C.3     
   8 C8             3.5858     2.1688     0.5314 C.3     
   9 N9             7.0215     4.9589    -1.9861 N.3     
  10 C10            7.1006     3.6198    -2.5835 C.3     
  11 C11            5.7419     2.9256    -2.4645 C.3     
  12 C12            5.3540     2.8236    -0.9868 C.3     
  13 C13            5.3260     4.2276    -0.3764 C.3     
  14 C14            6.6968     4.8840    -0.5560 C.3     
  15 C15            8.2665     5.7073    -2.2048 C.3     
  16 C16            8.1271     8.8880    -0.1707 C.ar    
  17 C17            8.3228     7.5611    -0.5040 C.ar    
  18 C18            8.0657     7.1453    -1.8014 C.ar    
  19 C19            7.6198     8.0842    -2.7191 C.ar    
  20 C20            7.4477     9.3940    -2.3129 C.ar    
  21 N21            7.7018     9.7537    -1.0699 N.ar    
  22 O22            4.7550     3.6852    -3.1654 O.3     
  23 C23            0.0974    -0.8760     1.1901 C.ar    
  24 C24           -1.2300    -1.3189     1.2060 C.ar    
  25 C25           -1.7342    -1.9336     2.3309 C.ar    
  26 C26           -0.9293    -2.1141     3.4462 C.ar    
  27 C27            0.3873    -1.6774     3.4370 C.ar    
  28 C28            0.9057    -1.0663     2.3165 C.ar    
  29 F29           -1.4300    -2.7174     4.5464 F       
  30 H30            4.3661     0.9305    -2.4990 H       
  31 H31            4.6539     0.2073    -0.8984 H       
  32 H32            1.9329     0.9809    -2.0461 H       
  33 H33            2.5678    -0.6758    -1.8944 H       
  34 H34            2.6908    -0.4250     0.5566 H       
  35 H35            1.4923     2.3380     0.0491 H       
  36 H36            1.8241     1.6148     1.6421 H       
  37 H37            4.2347     1.4985     1.0951 H       
  38 H38            3.6390     3.1701     0.9588 H       
  39 H39            7.3730     3.7068    -3.6353 H       
  40 H40            7.8554     3.0327    -2.0604 H       
  41 H41            5.8052     1.9258    -2.8940 H       
  42 H42            6.0853     2.2108    -0.4597 H       
  43 H43            4.5668     4.8275    -0.8782 H       
  44 H44            5.0922     4.1580     0.6859 H       
  45 H45            7.4535     4.2910    -0.0423 H       
  46 H46            6.6760     5.8893    -0.1352 H       
  47 H47            9.0639     5.2694    -1.6043 H       
  48 H48            8.5382     5.6603    -3.2594 H       
  49 H49            8.3208     9.2189     0.8390 H       
  50 H50            8.6716     6.8569     0.2369 H       
  51 H51            7.4100     7.7958    -3.7385 H       
  52 H52            7.1007    10.1314    -3.0216 H       
  53 H53            4.9384     3.7929    -4.1087 H       
  54 H54           -1.8578    -1.1787     0.3385 H       
  55 H55           -2.7585    -2.2756     2.3446 H       
  56 H56            1.0087    -1.8209     4.3086 H       
  57 H57            1.9322    -0.7308     2.3090 H       
@<TRIPOS>BOND
   1    1    2 2
   2    1    6 1
   3    1   23 1
   4    3    4 1
   5    3    8 1
   6    3   12 1
   7    4    5 1
   8    4   30 1
   9    4   31 1
  10    5    6 1
  11    5   32 1
  12    5   33 1
  13    6    7 1
  14    6   34 1
  15    7    8 1
  16    7   35 1
  17    7   36 1
  18    8   37 1
  19    8   38 1
  20    9   10 1
  21    9   14 1
  22    9   15 1
  23   10   11 1
  24   10   39 1
  25   10   40 1
  26   11   12 1
  27   11   22 1
  28   11   41 1
  29   12   13 1
  30   12   42 1
  31   13   14 1
  32   13   43 1
  33   13   44 1
  34   14   45 1
  35   14   46 1
  36   15   18 1
  37   15   47 1
  38   15   48 1
  39   16   17 ar
  40   16   21 ar
  41   16   49 1
  42   17   18 ar
  43   17   50 1
  44   18   19 ar
  45   19   20 ar
  46   19   51 1
  47   20   21 ar
  48   20   52 1
  49   22   53 1
  50   23   24 ar
  51   23   28 ar
  52   24   25 ar
  53   24   54 1
  54   25   26 ar
  55   25   55 1
  56   26   27 ar
  57   26   29 1
  58   27   28 ar
  59   27   56 1
  60   28   57 1

#	End of record

