#	Name: ASD01841040
#	Creating user name:	WinNT
#	Creation time:	15. 06. 2019 19:38

#	Modifying user name:	WinNT
#	Modification time:	15. 06. 2019 19:38

#	Program:	/corina/corina34_cracker 3.40 0067  02.08.2006

@<TRIPOS>MOLECULE
ASD01841040
  33   35    0    0    0
SMALL
NO_CHARGES


@<TRIPOS>ATOM
   1 C1            -0.0180     1.4767     0.0102 C.2     
   2 C2             0.0021    -0.0041     0.0020 C.ar    
   3 O3             1.0260     2.0985     0.0035 O.2     
   4 N4            -1.1942     2.1346     0.0193 N.am    
   5 S5            -2.6698     4.5036     0.0392 S.3     
   6 C6            -1.2130     3.5195     0.0269 C.2     
   7 N7            -0.1661     4.2689     0.0268 N.2     
   8 C8            -0.3466     5.6049     0.0355 C.ar    
   9 C9            -1.6946     5.9712     0.0436 C.ar    
  10 C10           -2.0608     7.3162     0.0533 C.ar    
  11 C11           -1.0962     8.2988     0.0549 C.ar    
  12 C12            0.2468     7.9529     0.0464 C.ar    
  13 C13            0.6285     6.6302     0.0366 C.ar    
  14 C14           -3.5190     7.6965     0.0614 C.3     
  15 O15            1.9490     6.3076     0.0293 O.3     
  16 C16            2.8815     7.3904     0.0309 C.3     
  17 N17           -1.1396    -0.6868     0.0093 N.ar    
  18 C18           -1.1177    -2.0045     0.0015 C.ar    
  19 C19            0.0936    -2.6808    -0.0142 C.ar    
  20 N20            1.2306    -2.0077    -0.0210 N.ar    
  21 C21            1.2180    -0.6870    -0.0191 C.ar    
  22 H22           -2.0276     1.6383     0.0206 H       
  23 H23           -1.3856     9.3393     0.0623 H       
  24 H24            0.9994     8.7276     0.0470 H       
  25 H25           -3.8664     7.7820     1.0910 H       
  26 H26           -3.6479     8.6525    -0.4461 H       
  27 H27           -4.0973     6.9302    -0.4547 H       
  28 H28            3.8973     6.9952     0.0245 H       
  29 H29            2.7254     8.0056    -0.8553 H       
  30 H30            2.7330     7.9965     0.9246 H       
  31 H31           -2.0444    -2.5590     0.0077 H       
  32 H32            0.1072    -3.7607    -0.0205 H       
  33 H33            2.1474    -0.1370    -0.0247 H       
@<TRIPOS>BOND
   1    1    2 1
   2    1    3 2
   3    1    4 am
   4    2   17 ar
   5    2   21 ar
   6    4    6 1
   7    4   22 1
   8    5    6 1
   9    5    9 1
  10    6    7 2
  11    7    8 1
  12    8    9 ar
  13    8   13 ar
  14    9   10 ar
  15   10   11 ar
  16   10   14 1
  17   11   12 ar
  18   11   23 1
  19   12   13 ar
  20   12   24 1
  21   13   15 1
  22   14   25 1
  23   14   26 1
  24   14   27 1
  25   15   16 1
  26   16   28 1
  27   16   29 1
  28   16   30 1
  29   17   18 ar
  30   18   19 ar
  31   18   31 1
  32   19   20 ar
  33   19   32 1
  34   20   21 ar
  35   21   33 1

#	End of record

