#	Name: ASD01840261
#	Creating user name:	WinNT
#	Creation time:	15. 06. 2019 19:37

#	Modifying user name:	WinNT
#	Modification time:	15. 06. 2019 19:37

#	Program:	/corina/corina34_cracker 3.40 0067  02.08.2006

@<TRIPOS>MOLECULE
ASD01840261
  41   44    0    0    0
SMALL
NO_CHARGES


@<TRIPOS>ATOM
   1 C1            -0.0173     1.4248     0.0099 C.3     
   2 O2             0.0021    -0.0041     0.0020 O.3     
   3 C3             0.6058    -0.6071    -1.0557 C.ar    
   4 C4             1.1730     0.1607    -2.0624 C.ar    
   5 C5             1.7865    -0.4547    -3.1363 C.ar    
   6 C6             1.8352    -1.8346    -3.2086 C.ar    
   7 C7             1.2702    -2.6021    -2.2068 C.ar    
   8 C8             0.6609    -1.9915    -1.1277 C.ar    
   9 C9             2.5046    -2.5033    -4.3815 C.3     
  10 C10            2.7065    -4.0183    -4.3102 C.3     
  11 C11            1.6503    -3.4305    -5.2482 C.3     
  12 N12            0.2440    -3.6003    -4.8744 N.am    
  13 C13           -0.6628    -3.9557    -5.8060 C.2     
  14 O14           -0.3132    -4.1356    -6.9584 O.2     
  15 C15           -2.0661    -4.1251    -5.4330 C.2     
  16 S16           -2.6982    -3.8896    -3.8151 S.3     
  17 C17           -4.3352    -4.2882    -4.3142 C.ar    
  18 C18           -5.5274    -4.3430    -3.5848 C.ar    
  19 N19           -6.6588    -4.6689    -4.1658 N.ar    
  20 C20           -6.7301    -4.9586    -5.4539 C.ar    
  21 C21           -5.6117    -4.9324    -6.2531 C.ar    
  22 F22           -5.7031    -5.2314    -7.5674 F       
  23 C23           -4.3631    -4.5873    -5.6816 C.ar    
  24 C24           -3.0524    -4.4798    -6.2945 C.2     
  25 N25           -2.8266    -4.7227    -7.6428 N.pl3   
  26 H26            1.0053     1.8021     0.0021 H       
  27 H27           -0.5445     1.7859    -0.8732 H       
  28 H28           -0.5275     1.7763     0.9067 H       
  29 H29            1.1347     1.2385    -2.0068 H       
  30 H30            2.2283     0.1425    -3.9203 H       
  31 H31            1.3092    -3.6798    -2.2657 H       
  32 H32            0.2237    -2.5913    -0.3432 H       
  33 H33            3.2748    -1.9156    -4.8810 H       
  34 H34            3.6097    -4.4275    -4.7628 H       
  35 H35            2.3551    -4.5313    -3.4150 H       
  36 H36            1.8586    -3.4531    -6.3179 H       
  37 H37           -0.0346    -3.4570    -3.9564 H       
  38 H38           -5.5171    -4.1145    -2.5293 H       
  39 H39           -7.6844    -5.2210    -5.8861 H       
  40 H40           -1.9313    -4.6414    -8.0070 H       
  41 H41           -3.5643    -4.9736    -8.2206 H       
@<TRIPOS>BOND
   1    1    2 1
   2    1   26 1
   3    1   27 1
   4    1   28 1
   5    2    3 1
   6    3    8 ar
   7    3    4 ar
   8    4    5 ar
   9    4   29 1
  10    5    6 ar
  11    5   30 1
  12    6    7 ar
  13    6    9 1
  14    7    8 ar
  15    7   31 1
  16    8   32 1
  17    9   11 1
  18    9   10 1
  19    9   33 1
  20   10   11 1
  21   10   34 1
  22   10   35 1
  23   11   12 1
  24   11   36 1
  25   12   13 am
  26   12   37 1
  27   13   14 2
  28   13   15 1
  29   15   24 2
  30   15   16 1
  31   16   17 1
  32   17   23 ar
  33   17   18 ar
  34   18   19 ar
  35   18   38 1
  36   19   20 ar
  37   20   21 ar
  38   20   39 1
  39   21   22 1
  40   21   23 ar
  41   23   24 1
  42   24   25 1
  43   25   40 1
  44   25   41 1

#	End of record

