#	Name: ASD01870507
#	Creating user name:	WinNT
#	Creation time:	15. 06. 2019 19:39

#	Modifying user name:	WinNT
#	Modification time:	15. 06. 2019 19:39

#	Program:	/corina/corina34_cracker 3.40 0067  02.08.2006

@<TRIPOS>MOLECULE
ASD01870507
  40   43    0    0    0
SMALL
NO_CHARGES


@<TRIPOS>ATOM
   1 C1            -0.0303     1.4002    -0.2325 C.ar    
   2 C2            -0.0273     0.0161    -0.1044 C.ar    
   3 C3             1.1508    -0.6610     0.1407 C.ar    
   4 C4             2.3477     0.0294     0.2623 C.ar    
   5 C5             2.3625     1.4085     0.1370 C.ar    
   6 C6             1.1608     2.1033    -0.1130 C.ar    
   7 C7             3.4186     2.4402     0.2057 C.2     
   8 N8             2.8536     3.6448     0.0070 N.am    
   9 C9             1.5274     3.5313    -0.1873 C.2     
  10 O10            0.7596     4.4504    -0.3905 O.2     
  11 O11            4.5985     2.2350     0.4080 O.2     
  12 C12            3.5554     4.8602     0.0038 C.ar    
  13 C13            4.0860     5.3522    -1.1809 C.ar    
  14 C14            4.7768     6.5474    -1.1845 C.ar    
  15 C15            4.9409     7.2586    -0.0026 C.ar    
  16 C16            4.4100     6.7673     1.1828 C.ar    
  17 C17            3.7142     5.5737     1.1853 C.ar    
  18 Cl18           3.0446     4.9621     2.6656 Cl      
  19 N19            5.6417     8.4702    -0.0065 N.am    
  20 C20            6.4142     8.8052     1.0459 C.2     
  21 C21            7.2307    10.0282     0.9993 C.2     
  22 O22            6.4364     8.0963     2.0342 O.2     
  23 C23            8.0698    10.5053     1.9915 C.2     
  24 C24            8.6165    11.6838     1.4786 C.2     
  25 N25            8.1246    11.8659     0.2797 N.2     
  26 N26            7.3173    10.9174    -0.0340 N.pl3   
  27 C27            8.3364     9.8852     3.3389 C.3     
  28 F28           -1.1852     2.0571    -0.4774 F       
  29 H29           -0.9525    -0.5332    -0.1970 H       
  30 H30            1.1402    -1.7365     0.2389 H       
  31 H31            3.2653    -0.5069     0.4545 H       
  32 H32            3.9586     4.7995    -2.1000 H       
  33 H33            5.1900     6.9293    -2.1063 H       
  34 H34            4.5378     7.3199     2.1018 H       
  35 H35            5.5714     9.0687    -0.7665 H       
  36 H36            9.3201    12.3302     1.9821 H       
  37 H37            6.8400    10.8450    -0.8753 H       
  38 H38            9.1800     9.1992     3.2627 H       
  39 H39            8.5694    10.6689     4.0598 H       
  40 H40            7.4527     9.3391     3.6688 H       
@<TRIPOS>BOND
   1    1    2 ar
   2    1    6 ar
   3    1   28 1
   4    2    3 ar
   5    2   29 1
   6    3    4 ar
   7    3   30 1
   8    4    5 ar
   9    4   31 1
  10    5    7 1
  11    5    6 ar
  12    6    9 1
  13    7    8 am
  14    7   11 2
  15    8    9 am
  16    8   12 1
  17    9   10 2
  18   12   13 ar
  19   12   17 ar
  20   13   14 ar
  21   13   32 1
  22   14   15 ar
  23   14   33 1
  24   15   16 ar
  25   15   19 1
  26   16   17 ar
  27   16   34 1
  28   17   18 1
  29   19   20 am
  30   19   35 1
  31   20   21 1
  32   20   22 2
  33   21   23 2
  34   21   26 1
  35   23   24 1
  36   23   27 1
  37   24   25 2
  38   24   36 1
  39   25   26 1
  40   26   37 1
  41   27   38 1
  42   27   39 1
  43   27   40 1

#	End of record

