#	Name: ASD02508073
#	Creating user name:	WinNT
#	Creation time:	15. 06. 2019 20:23

#	Modifying user name:	WinNT
#	Modification time:	15. 06. 2019 20:23

#	Program:	/corina/corina34_cracker 3.40 0067  02.08.2006

@<TRIPOS>MOLECULE
ASD02508073
  36   38    0    0    0
SMALL
NO_CHARGES


@<TRIPOS>ATOM
   1 C1            -0.0118     1.3912    -0.0073 C.ar    
   2 C2             0.0073     0.0100     0.1093 C.ar    
   3 C3             1.1821     2.1004    -0.1342 C.ar    
   4 C4             2.3898     1.4204    -0.1435 C.ar    
   5 C5             2.4054     0.0386    -0.0267 C.ar    
   6 C6             1.2123    -0.6654     0.0997 C.ar    
   7 N7            -1.0411     2.3355    -0.0361 N.am    
   8 C8            -0.4719     3.5500    -0.1685 C.2     
   9 O9             0.8621     3.4145    -0.2288 O.3     
  10 N10            3.6244    -0.6492    -0.0360 N.am    
  11 S11            4.9610     0.0252     0.6720 S.o2    
  12 C12            4.5822     0.2684     2.3755 C.ar    
  13 C13            4.8531    -0.7295     3.2930 C.ar    
  14 O14           -1.0740     4.6048    -0.2289 O.2     
  15 O15            5.9815    -0.9626     0.6249 O.2     
  16 C16           -2.4761     2.0567     0.0600 C.3     
  17 Cl17           1.2378    -2.3950     0.2468 Cl      
  18 C18            4.0195     1.4591     2.7951 C.ar    
  19 C19            3.7228     1.6510     4.1318 C.ar    
  20 C20            3.9887     0.6523     5.0492 C.ar    
  21 C21            4.5560    -0.5382     4.6304 C.ar    
  22 O22            5.1057     1.3198     0.1043 O.2     
  23 Cl23           4.8898    -1.7935     5.7822 Cl      
  24 C24           -2.9033     2.0822     1.5290 C.3     
  25 H25           -0.9186    -0.5373     0.2078 H       
  26 H26            3.3169     1.9655    -0.2420 H       
  27 H27            3.6863    -1.5208    -0.4571 H       
  28 H28            5.2962    -1.6584     2.9656 H       
  29 H29           -3.0313     2.8143    -0.4930 H       
  30 H30           -2.6842     1.0734    -0.3618 H       
  31 H31            3.8118     2.2400     2.0785 H       
  32 H32            3.2834     2.5818     4.4590 H       
  33 H33            3.7576     0.8027     6.0934 H       
  34 H34           -2.3481     1.3246     2.0820 H       
  35 H35           -2.6951     3.0655     1.9508 H       
  36 H36           -3.9709     1.8748     1.6005 H       
@<TRIPOS>BOND
   1    1    2 ar
   2    1    3 ar
   3    1    7 1
   4    2    6 ar
   5    2   25 1
   6    3    4 ar
   7    3    9 1
   8    4    5 ar
   9    4   26 1
  10    5    6 ar
  11    5   10 1
  12    6   17 1
  13    7    8 am
  14    7   16 1
  15    8    9 1
  16    8   14 2
  17   10   11 am
  18   10   27 1
  19   11   12 1
  20   11   15 2
  21   11   22 2
  22   12   13 ar
  23   12   18 ar
  24   13   21 ar
  25   13   28 1
  26   16   24 1
  27   16   29 1
  28   16   30 1
  29   18   19 ar
  30   18   31 1
  31   19   20 ar
  32   19   32 1
  33   20   21 ar
  34   20   33 1
  35   21   23 1
  36   24   34 1
  37   24   35 1
  38   24   36 1

#	End of record

