#	Name: ASD01884120
#	Creating user name:	WinNT
#	Creation time:	15. 06. 2019 19:47

#	Modifying user name:	WinNT
#	Modification time:	15. 06. 2019 19:47

#	Program:	/corina/corina34_cracker 3.40 0067  02.08.2006

@<TRIPOS>MOLECULE
ASD01884120
  56   60    0    0    0
SMALL
NO_CHARGES


@<TRIPOS>ATOM
   1 C1            -0.8460    -0.1816    -0.9932 C.2     
   2 C2            -0.0271    -0.0493     0.0952 C.2     
   3 C3            -0.3893     0.8327     1.1366 C.2     
   4 C4            -1.5337     1.5397     1.0607 C.2     
   5 N5            -2.3573     1.4147    -0.0199 N.pl3   
   6 C6            -2.0315     0.5706    -1.0536 C.2     
   7 C7            -3.5474     1.9843    -0.3660 C.2     
   8 N8            -3.8938     1.4953    -1.5275 N.2     
   9 N9            -3.0075     0.6609    -1.9442 N.2     
  10 N10            1.1547    -0.7796     0.1753 N.pl3   
  11 C11            1.1234    -2.2439     0.2921 C.3     
  12 C12            1.9523    -2.6590     1.5117 C.3     
  13 C13            3.3589    -2.0679     1.3926 C.3     
  14 C14            3.2715    -0.5403     1.3653 C.3     
  15 C15            2.4576    -0.1016     0.1384 C.3     
  16 C16           -4.3216     2.9926     0.4433 C.3     
  17 C17            4.1878    -2.5024     2.5738 C.ar    
  18 C18            5.3464    -3.2367     2.3756 C.ar    
  19 C19            6.1086    -3.6359     3.4666 C.ar    
  20 C20            5.7099    -3.3001     4.7474 C.ar    
  21 C21            4.5535    -2.5674     4.9430 C.ar    
  22 C22            3.7955    -2.1636     3.8573 C.ar    
  23 C23           -3.8787     4.4052     0.0568 C.3     
  24 C24           -4.6327     5.5788     0.6853 C.3     
  25 C25           -3.2071     5.2554     1.1370 C.3     
  26 F26            7.2382    -4.3521     3.2763 F       
  27 F27            2.6664    -1.4475     4.0513 F       
  28 O28            5.7364    -3.5662     1.1156 O.3     
  29 C29            6.5938    -2.6441     0.4398 C.3     
  30 C30           -0.4781    -1.1175    -2.1156 C.3     
  31 F31           -0.9355    -2.4056    -1.8176 F       
  32 F32           -1.0698    -0.6758    -3.3039 F       
  33 F33            0.9125    -1.1399    -2.2673 F       
  34 H34            0.2535     0.9408     1.9978 H       
  35 H35           -1.8018     2.2114     1.8628 H       
  36 H36            0.0938    -2.5784     0.4191 H       
  37 H37            1.5469    -2.6913    -0.6071 H       
  38 H38            1.4767    -2.2863     2.4188 H       
  39 H39            2.0170    -3.7463     1.5546 H       
  40 H40            3.8247    -2.4215     0.4727 H       
  41 H41            2.7835    -0.1875     2.2738 H       
  42 H42            4.2752    -0.1195     1.3040 H       
  43 H43            2.9921    -0.3747    -0.7714 H       
  44 H44            2.3075     0.9777     0.1664 H       
  45 H45           -5.3869     2.8783     0.2431 H       
  46 H46           -4.1318     2.8299     1.5042 H       
  47 H47            6.3019    -3.6106     5.5957 H       
  48 H48            4.2437    -2.3060     5.9441 H       
  49 H49           -3.5273     4.5237    -0.9682 H       
  50 H50           -4.7770     6.4696     0.0740 H       
  51 H51           -5.4442     5.3445     1.3742 H       
  52 H52           -3.0808     4.8084     2.1231 H       
  53 H53           -2.4136     5.9334     0.8229 H       
  54 H54            6.0916    -1.6810     0.3485 H       
  55 H55            7.5153    -2.5208     1.0088 H       
  56 H56            6.8285    -3.0270    -0.5534 H       
@<TRIPOS>BOND
   1    1    2 2
   2    1   30 1
   3    1    6 1
   4    2    3 1
   5    2   10 1
   6    3    4 2
   7    3   34 1
   8    4    5 1
   9    4   35 1
  10    5    6 1
  11    5    7 1
  12    6    9 2
  13    7    8 2
  14    7   16 1
  15    8    9 1
  16   10   11 1
  17   10   15 1
  18   11   12 1
  19   11   36 1
  20   11   37 1
  21   12   13 1
  22   12   38 1
  23   12   39 1
  24   13   14 1
  25   13   17 1
  26   13   40 1
  27   14   15 1
  28   14   41 1
  29   14   42 1
  30   15   43 1
  31   15   44 1
  32   16   23 1
  33   16   45 1
  34   16   46 1
  35   17   18 ar
  36   17   22 ar
  37   18   19 ar
  38   18   28 1
  39   19   20 ar
  40   19   26 1
  41   20   21 ar
  42   20   47 1
  43   21   22 ar
  44   21   48 1
  45   22   27 1
  46   23   24 1
  47   23   25 1
  48   23   49 1
  49   24   25 1
  50   24   50 1
  51   24   51 1
  52   25   52 1
  53   25   53 1
  54   28   29 1
  55   29   54 1
  56   29   55 1
  57   29   56 1
  58   30   31 1
  59   30   32 1
  60   30   33 1

#	End of record

