#	Name: ASD03730842
#	Creating user name:	WinNT
#	Creation time:	15. 06. 2019 20:44

#	Modifying user name:	WinNT
#	Modification time:	15. 06. 2019 20:44

#	Program:	/corina/corina34_cracker 3.40 0067  02.08.2006

@<TRIPOS>MOLECULE
ASD03730842
  71   77    0    0    0
SMALL
NO_CHARGES


@<TRIPOS>ATOM
   1 C1            -0.0434     1.4502    -0.2721 C.2     
   2 C2             0.0044     0.0030     0.0266 C.ar    
   3 C3             1.2278    -0.6690     0.0445 C.ar    
   4 C4             1.2654    -2.0192     0.3243 C.ar    
   5 C5             0.0939    -2.7075     0.5865 C.ar    
   6 C6            -1.1218    -2.0475     0.5703 C.ar    
   7 C7            -1.1728    -0.6959     0.2975 C.ar    
   8 O8             0.9890     2.0764    -0.4117 O.2     
   9 N9            -1.2317     2.0741    -0.3951 N.am    
  10 C10            2.5045     0.0787    -0.2417 C.3     
  11 O11            3.1088    -6.9750    -1.4947 O.3     
  12 C12            3.8756    -8.1830    -1.6559 C.3     
  13 O13            5.0481    -7.7512    -2.3713 O.3     
  14 C14            5.2155    -6.4370    -2.0399 C.ar    
  15 C15            4.0224    -5.9601    -1.5018 C.ar    
  16 C16            6.3076    -5.5957    -2.1547 C.ar    
  17 C17            6.2239    -4.2708    -1.7373 C.ar    
  18 C18            5.0242    -3.8037    -1.2091 C.ar    
  19 C19            3.9354    -4.6416    -1.0876 C.ar    
  20 O20            7.1740    -3.2923    -1.7461 O.3     
  21 C21            5.2368    -2.3498    -0.8820 C.3     
  22 C22            6.5337    -2.0072    -1.6278 C.3     
  23 N23            3.6310    -0.8577    -0.2344 N.am    
  24 C24            4.0891    -1.4924    -1.3318 C.2     
  25 C25            5.3593    -2.1085     0.5933 C.ar    
  26 C26            6.2048    -2.5879     1.5688 C.ar    
  27 C27            6.0637    -2.1633     2.8780 C.ar    
  28 C28            5.0711    -1.2572     3.2045 C.ar    
  29 C29            4.2211    -0.7749     2.2311 C.ar    
  30 C30            4.3562    -1.1964     0.9106 C.ar    
  31 O31            3.6589    -1.3905    -2.4612 O.2     
  32 C32           -1.2791     3.5081    -0.6910 C.3     
  33 C33           -1.1769     3.7205    -2.2027 C.3     
  34 C34           -2.5993     4.0905    -0.1823 C.3     
  35 C35           -2.6487     5.5882    -0.4913 C.3     
  36 C36           -3.9689     6.1706     0.0174 C.3     
  37 C37           -5.1374     5.4678    -0.6765 C.3     
  38 C38           -5.0880     3.9701    -0.3675 C.3     
  39 C39           -3.7678     3.3877    -0.8762 C.3     
  40 H40            2.2112    -2.5404     0.3385 H       
  41 H41            0.1287    -3.7647     0.8043 H       
  42 H42           -2.0325    -2.5905     0.7757 H       
  43 H43           -2.1221    -0.1809     0.2892 H       
  44 H44           -2.0557     1.5736    -0.2876 H       
  45 H45            2.4348     0.5557    -1.2193 H       
  46 H46            2.6593     0.8394     0.5235 H       
  47 H47            4.1496    -8.5951    -0.6848 H       
  48 H48            3.3184    -8.9151    -2.2404 H       
  49 H49            7.2313    -5.9696    -2.5710 H       
  50 H50            3.0126    -4.2684    -0.6687 H       
  51 H51            7.1470    -1.3215    -1.0431 H       
  52 H52            6.3162    -1.5911    -2.6115 H       
  53 H53            6.9791    -3.2956     1.3116 H       
  54 H54            6.7272    -2.5384     3.6431 H       
  55 H55            4.9609    -0.9259     4.2265 H       
  56 H56            3.4482    -0.0679     2.4940 H       
  57 H57           -0.4466     4.0088    -0.1966 H       
  58 H58           -2.0093     3.2198    -2.6971 H       
  59 H59           -1.2121     4.7874    -2.4229 H       
  60 H60           -0.2363     3.3056    -2.5651 H       
  61 H61           -2.6721     3.9392     0.8947 H       
  62 H62           -1.8162     6.0888     0.0030 H       
  63 H63           -2.5759     5.7395    -1.5683 H       
  64 H64           -4.0417     6.0192     1.0944 H       
  65 H65           -4.0041     7.2375    -0.2028 H       
  66 H66           -6.0779     5.8827    -0.3141 H       
  67 H67           -5.0646     5.6191    -1.7535 H       
  68 H68           -5.1608     3.8188     0.7095 H       
  69 H69           -5.9204     3.4695    -0.8619 H       
  70 H70           -3.6949     3.5390    -1.9532 H       
  71 H71           -3.7326     2.3208    -0.6560 H       
@<TRIPOS>BOND
   1    1    2 1
   2    1    8 2
   3    1    9 am
   4    2    3 ar
   5    2    7 ar
   6    3    4 ar
   7    3   10 1
   8    4    5 ar
   9    4   40 1
  10    5    6 ar
  11    5   41 1
  12    6    7 ar
  13    6   42 1
  14    7   43 1
  15    9   32 1
  16    9   44 1
  17   10   23 1
  18   10   45 1
  19   10   46 1
  20   11   12 1
  21   11   15 1
  22   12   13 1
  23   12   47 1
  24   12   48 1
  25   13   14 1
  26   14   15 ar
  27   14   16 ar
  28   15   19 ar
  29   16   17 ar
  30   16   49 1
  31   17   18 ar
  32   17   20 1
  33   18   19 ar
  34   18   21 1
  35   19   50 1
  36   20   22 1
  37   21   22 1
  38   21   24 1
  39   21   25 1
  40   22   51 1
  41   22   52 1
  42   23   24 am
  43   23   30 1
  44   24   31 2
  45   25   26 ar
  46   25   30 ar
  47   26   27 ar
  48   26   53 1
  49   27   28 ar
  50   27   54 1
  51   28   29 ar
  52   28   55 1
  53   29   30 ar
  54   29   56 1
  55   32   33 1
  56   32   34 1
  57   32   57 1
  58   33   58 1
  59   33   59 1
  60   33   60 1
  61   34   35 1
  62   34   39 1
  63   34   61 1
  64   35   36 1
  65   35   62 1
  66   35   63 1
  67   36   37 1
  68   36   64 1
  69   36   65 1
  70   37   38 1
  71   37   66 1
  72   37   67 1
  73   38   39 1
  74   38   68 1
  75   38   69 1
  76   39   70 1
  77   39   71 1

#	End of record

