#	Name: ASD03740237
#	Creating user name:	WinNT
#	Creation time:	15. 06. 2019 20:46

#	Modifying user name:	WinNT
#	Modification time:	15. 06. 2019 20:46

#	Program:	/corina/corina34_cracker 3.40 0067  02.08.2006

@<TRIPOS>MOLECULE
ASD03740237
  48   49    0    0    0
SMALL
NO_CHARGES


@<TRIPOS>ATOM
   1 C1             1.9137    -1.3655    -2.8917 C.3     
   2 N2            -0.9437    -2.2789    -0.5813 N.am    
   3 O3            -2.8172    -3.3300    -0.0164 O.2     
   4 C4             1.0603    -2.2421    -1.9730 C.3     
   5 N5            -3.6202    -4.2033    -2.6654 N.am    
   6 O6            -4.0227    -4.5415    -4.8207 O.2     
   7 C7             1.8627    -2.6025    -0.7207 C.3     
   8 O8            -3.5700    -9.1549    -3.6566 O.2     
   9 C9             1.0216    -3.5064     0.1836 C.3     
  10 O10           -3.9709    -9.4916    -5.8035 O.3     
  11 C11            1.8365    -3.8928     1.4195 C.3     
  12 C12           -0.2408    -2.7551     0.6178 C.3     
  13 C13           -0.2017    -1.4765    -1.5632 C.3     
  14 C14           -2.2430    -2.5773    -0.7794 C.2     
  15 C15           -2.9686    -1.9906    -1.9221 C.ar    
  16 C16           -2.9885    -0.6064    -2.1056 C.ar    
  17 C17           -3.6687    -0.0642    -3.1759 C.ar    
  18 C18           -4.3338    -0.8868    -4.0713 C.ar    
  19 C19           -4.3229    -2.2570    -3.9018 C.ar    
  20 C20           -3.6379    -2.8205    -2.8341 C.ar    
  21 C21           -3.7872    -5.0142    -3.7289 C.2     
  22 C22           -3.6814    -6.5081    -3.5615 C.3     
  23 C23           -3.9104    -7.1901    -4.9117 C.3     
  24 C24           -3.8046    -8.6841    -4.7443 C.2     
  25 Br25          -3.6944     1.8105    -3.4226 Br      
  26 H26            2.8129    -1.9096    -3.1807 H       
  27 H27            1.3418    -1.1090    -3.7834 H       
  28 H28            2.1945    -0.4532    -2.3653 H       
  29 H29            0.7783    -3.1541    -2.4993 H       
  30 H30           -3.4878    -4.5825    -1.7825 H       
  31 H31            2.7736    -3.1259    -1.0112 H       
  32 H32            2.1236    -1.6916    -0.1820 H       
  33 H33            0.7400    -4.4067    -0.3626 H       
  34 H34           -3.8938   -10.4427    -5.6468 H       
  35 H35            2.1169    -2.9923     1.9660 H       
  36 H36            1.2371    -4.5366     2.0633 H       
  37 H37            2.7360    -4.4248     1.1099 H       
  38 H38            0.0362    -1.9047     1.2409 H       
  39 H39           -0.8903    -3.4262     1.1798 H       
  40 H40           -0.8255    -1.3040    -2.4403 H       
  41 H41            0.0785    -0.5218    -1.1180 H       
  42 H42           -2.4722     0.0387    -1.4101 H       
  43 H43           -4.8642    -0.4535    -4.9063 H       
  44 H44           -4.8441    -2.8914    -4.6034 H       
  45 H45           -2.6889    -6.7626    -3.1896 H       
  46 H46           -4.4341    -6.8482    -2.8503 H       
  47 H47           -4.9029    -6.9356    -5.2836 H       
  48 H48           -3.1577    -6.8500    -5.6229 H       
@<TRIPOS>BOND
   1    1    4 1
   2    1   26 1
   3    1   27 1
   4    1   28 1
   5    2   12 1
   6    2   13 1
   7    2   14 am
   8    3   14 2
   9    4    7 1
  10    4   13 1
  11    4   29 1
  12    5   20 1
  13    5   21 am
  14    5   30 1
  15    6   21 2
  16    7    9 1
  17    7   31 1
  18    7   32 1
  19    8   24 2
  20    9   11 1
  21    9   12 1
  22    9   33 1
  23   10   24 1
  24   10   34 1
  25   11   35 1
  26   11   36 1
  27   11   37 1
  28   12   38 1
  29   12   39 1
  30   13   40 1
  31   13   41 1
  32   14   15 1
  33   15   16 ar
  34   15   20 ar
  35   16   17 ar
  36   16   42 1
  37   17   18 ar
  38   17   25 1
  39   18   19 ar
  40   18   43 1
  41   19   20 ar
  42   19   44 1
  43   21   22 1
  44   22   23 1
  45   22   45 1
  46   22   46 1
  47   23   24 1
  48   23   47 1
  49   23   48 1

#	End of record

