#	Name: ASD03331389
#	Creating user name:	WinNT
#	Creation time:	15. 06. 2019 20:39

#	Modifying user name:	WinNT
#	Modification time:	15. 06. 2019 20:39

#	Program:	/corina/corina34_cracker 3.40 0067  02.08.2006

@<TRIPOS>MOLECULE
ASD03331389
  61   64    0    0    0
SMALL
NO_CHARGES


@<TRIPOS>ATOM
   1 N1             0.0424     1.3339    -0.3421 N.2     
   2 N2             0.0670    -0.0577    -0.1572 N.am    
   3 C3             1.3623    -0.4479    -0.1211 C.2     
   4 C4             2.1356     0.6549    -0.2753 C.2     
   5 C5             1.2866     1.7631    -0.4134 C.2     
   6 C6             3.6431     0.6099    -0.2831 C.3     
   7 C7             1.9356    -1.8328     0.0524 C.3     
   8 C8             3.4107    -1.7844    -0.3726 C.3     
   9 O9             4.0506    -0.6617     0.2402 O.3     
  10 C10           -1.0081    -0.8616    -0.0368 C.2     
  11 O11           -0.8581    -2.0570     0.1209 O.2     
  12 N12           -2.2494    -0.3396    -0.0911 N.am    
  13 C13           -4.6024    -0.5731    -0.6369 C.2     
  14 C14           -3.4179    -1.2135     0.0398 C.3     
  15 C15           -3.7314    -1.4272     1.5220 C.3     
  16 C16           -5.0302    -2.2242     1.6589 C.3     
  17 N17           -5.5631    -1.3434    -1.1849 N.am    
  18 C18           -5.4324    -2.8071    -1.2384 C.3     
  19 C19           -5.8845    -3.2873    -2.5905 C.2     
  20 N20           -6.5472    -2.5144    -3.4522 N.am    
  21 C21           -6.8373    -1.1026    -3.2427 C.3     
  22 C22           -6.7891    -0.7538    -1.7490 C.3     
  23 O23           -5.6346    -4.4298    -2.9119 O.2     
  24 O24           -4.6913     0.6353    -0.6883 O.2     
  25 C25           -2.5866    -2.2010     2.1790 C.3     
  26 C26           -3.8908    -0.0701     2.2104 C.3     
  27 C27            1.7141     3.1709    -0.6058 C.ar    
  28 C28            0.9614     4.0260    -1.4087 C.ar    
  29 C29            1.3634     5.3359    -1.5849 C.ar    
  30 C30            2.5149     5.7991    -0.9639 C.ar    
  31 C31            3.2644     4.9512    -0.1661 C.ar    
  32 C32            2.8658     3.6429     0.0202 C.ar    
  33 F33            2.9056     7.0805    -1.1385 F       
  34 F34            0.6353     6.1665    -2.3628 F       
  35 H35            4.0099     0.7233    -1.3033 H       
  36 H36            4.0389     1.4099     0.3425 H       
  37 H37            1.8619    -2.1350     1.0971 H       
  38 H38            1.3930    -2.5388    -0.5764 H       
  39 H39            3.9090    -2.7017    -0.0590 H       
  40 H40            3.4731    -1.6906    -1.4567 H       
  41 H41           -2.3692     0.6147    -0.2170 H       
  42 H42           -3.2073    -2.1746    -0.4293 H       
  43 H43           -4.9101    -3.1987     1.1857 H       
  44 H44           -5.2640    -2.3594     2.7149 H       
  45 H45           -5.8419    -1.6822     1.1736 H       
  46 H46           -4.3907    -3.0866    -1.0813 H       
  47 H47           -6.0538    -3.2576    -0.4644 H       
  48 H48           -6.8575    -2.9211    -4.2764 H       
  49 H49           -6.1015    -0.5020    -3.7774 H       
  50 H50           -7.8314    -0.8793    -3.6299 H       
  51 H51           -7.6621    -1.1673    -1.2440 H       
  52 H52           -6.7686     0.3287    -1.6223 H       
  53 H53           -1.6613    -1.6332     2.0815 H       
  54 H54           -2.8099    -2.3532     3.2350 H       
  55 H55           -2.4731    -3.1678     1.6886 H       
  56 H56           -4.7063     0.4811     1.7424 H       
  57 H57           -4.1141    -0.2224     3.2664 H       
  58 H58           -2.9655     0.4976     2.1129 H       
  59 H59            0.0658     3.6652    -1.8924 H       
  60 H60            4.1600     5.3155     0.3151 H       
  61 H61            3.4490     2.9842     0.6466 H       
@<TRIPOS>BOND
   1    1    2 1
   2    1    5 2
   3    2    3 1
   4    2   10 am
   5    3    4 2
   6    3    7 1
   7    4    5 1
   8    4    6 1
   9    5   27 1
  10    6    9 1
  11    6   35 1
  12    6   36 1
  13    7    8 1
  14    7   37 1
  15    7   38 1
  16    8    9 1
  17    8   39 1
  18    8   40 1
  19   10   11 2
  20   10   12 am
  21   12   14 1
  22   12   41 1
  23   13   17 am
  24   13   24 2
  25   13   14 1
  26   14   15 1
  27   14   42 1
  28   15   16 1
  29   15   25 1
  30   15   26 1
  31   16   43 1
  32   16   44 1
  33   16   45 1
  34   17   18 1
  35   17   22 1
  36   18   19 1
  37   18   46 1
  38   18   47 1
  39   19   20 am
  40   19   23 2
  41   20   21 1
  42   20   48 1
  43   21   22 1
  44   21   49 1
  45   21   50 1
  46   22   51 1
  47   22   52 1
  48   25   53 1
  49   25   54 1
  50   25   55 1
  51   26   56 1
  52   26   57 1
  53   26   58 1
  54   27   28 ar
  55   27   32 ar
  56   28   29 ar
  57   28   59 1
  58   29   30 ar
  59   29   34 1
  60   30   31 ar
  61   30   33 1
  62   31   32 ar
  63   31   60 1
  64   32   61 1

#	End of record

