#	Name: ASD01911957
#	Creating user name:	WinNT
#	Creation time:	15. 06. 2019 19:58

#	Modifying user name:	WinNT
#	Modification time:	15. 06. 2019 19:58

#	Program:	/corina/corina34_cracker 3.40 0067  02.08.2006

@<TRIPOS>MOLECULE
ASD01911957
  35   37    0    0    0
SMALL
NO_CHARGES


@<TRIPOS>ATOM
   1 C1            -1.3362     1.1650     1.7449 C.ar    
   2 C2            -1.1798    -0.2036     1.5505 C.ar    
   3 C3            -1.1120    -1.0250     2.6713 C.ar    
   4 N4            -1.1980    -0.4794     3.8732 N.ar    
   5 C5            -1.3459     0.8223     4.0161 C.ar    
   6 N6            -1.4143     1.6333     2.9796 N.ar    
   7 O7            -1.0959    -0.7248     0.2982 O.3     
   8 C8            -0.9392    -2.0690     0.1758 C.ar    
   9 C9             0.4657    -3.9760    -0.2568 C.ar    
  10 C10           -0.6289    -4.8215    -0.0735 C.ar    
  11 C11           -1.8724    -4.2866     0.2283 C.ar    
  12 C12           -2.0270    -2.9120     0.3523 C.ar    
  13 N13           -2.9708    -5.1325     0.4124 N.am    
  14 C14           -4.2051    -4.7203     0.0618 C.2     
  15 C15           -5.3812    -5.5725     0.3532 C.ar    
  16 O16           -4.3532    -3.6494    -0.4933 O.2     
  17 N17           -5.2130    -6.7412     0.9598 N.ar    
  18 C18           -6.2299    -7.5281     1.2373 C.ar    
  19 C19           -7.5237    -7.1632     0.9041 C.ar    
  20 C20           -7.7458    -5.9496     0.2688 C.ar    
  21 C21           -6.6547    -5.1381    -0.0065 C.ar    
  22 C22            0.3051    -2.5950    -0.1307 C.ar    
  23 Cl23          -9.3522    -5.4557    -0.1661 Cl      
  24 C24            1.7516    -4.5237    -0.5686 C.1     
  25 N25            2.7717    -4.9581    -0.8159 N.1     
  26 H26           -1.3886     1.8359     0.9001 H       
  27 H27           -0.9912    -2.0926     2.5616 H       
  28 H28           -1.4132     1.2364     5.0113 H       
  29 H29           -0.5082    -5.8906    -0.1669 H       
  30 H30           -2.9965    -2.4982     0.5871 H       
  31 H31           -2.8442    -6.0160     0.7924 H       
  32 H32           -6.0534    -8.4720     1.7315 H       
  33 H33           -8.3516    -7.8168     1.1362 H       
  34 H34           -6.7901    -4.1868    -0.4996 H       
  35 H35            1.1500    -1.9374    -0.2722 H       
@<TRIPOS>BOND
   1    1    2 ar
   2    1    6 ar
   3    1   26 1
   4    2    3 ar
   5    2    7 1
   6    3    4 ar
   7    3   27 1
   8    4    5 ar
   9    5    6 ar
  10    5   28 1
  11    7    8 1
  12    8   22 ar
  13    8   12 ar
  14    9   10 ar
  15    9   24 1
  16    9   22 ar
  17   10   11 ar
  18   10   29 1
  19   11   12 ar
  20   11   13 1
  21   12   30 1
  22   13   14 am
  23   13   31 1
  24   14   15 1
  25   14   16 2
  26   15   17 ar
  27   15   21 ar
  28   17   18 ar
  29   18   19 ar
  30   18   32 1
  31   19   20 ar
  32   19   33 1
  33   20   21 ar
  34   20   23 1
  35   21   34 1
  36   22   35 1
  37   24   25 3

#	End of record

