#	Name: ASD04882469
#	Creating user name:	WinNT
#	Creation time:	15. 06. 2019 20:54

#	Modifying user name:	WinNT
#	Modification time:	15. 06. 2019 20:54

#	Program:	/corina/corina34_cracker 3.40 0067  02.08.2006

@<TRIPOS>MOLECULE
ASD04882469
  72   76    0    0    0
SMALL
NO_CHARGES


@<TRIPOS>ATOM
   1 C1            -0.0101     1.3694    -0.0219 C.ar    
   2 C2             0.0012    -0.0281    -0.0118 C.ar    
   3 C3            -1.1959    -0.7349    -0.0224 C.ar    
   4 C4            -2.3968    -0.0610    -0.0422 C.ar    
   5 C5            -2.4153     1.3365    -0.0519 C.ar    
   6 C6            -1.2132     2.0495    -0.0366 C.ar    
   7 N7             1.2132    -0.7136     0.0083 N.3     
   8 C8             1.3189    -1.5615     1.2039 C.3     
   9 C9             1.3889    -1.5088    -1.2150 C.3     
  10 C10            2.7633    -2.1816    -1.1899 C.3     
  11 N11            2.8691    -3.0295     0.0057 N.3     
  12 C12            2.6934    -2.2343     1.2290 C.3     
  13 C13           -3.7019     2.0581    -0.0732 C.2     
  14 O14           -3.7170     3.2739    -0.0816 O.2     
  15 N15           -4.8605     1.3696    -0.0833 N.am    
  16 N16            1.1970     2.0804    -0.0113 N.am    
  17 C17            4.0789    -3.7137     0.0258 C.ar    
  18 C18            4.0850    -5.0999     0.1397 C.ar    
  19 C19            5.2961    -5.7682     0.1580 C.ar    
  20 C20            6.4647    -5.0247     0.0613 C.ar    
  21 C21            6.3848    -3.6508    -0.0494 C.ar    
  22 N22            5.2152    -3.0404    -0.0692 N.ar    
  23 C23            1.2379     3.3314     0.4884 C.2     
  24 C24            2.5168     4.0428     0.5803 C.2     
  25 O25            0.2132     3.8708     0.8633 O.2     
  26 C26            2.6990     5.3069     1.0637 C.2     
  27 C27            4.0718     5.5824     0.9659 C.2     
  28 C28            4.6601     4.4883     0.4339 C.2     
  29 O29            3.7206     3.5609     0.2077 O.3     
  30 C30            6.1316     4.3349     0.1472 C.3     
  31 C31            2.7898    -5.8635     0.2423 C.3     
  32 C32           -6.1382     2.0861    -0.1044 C.3     
  33 C33           -7.2885     1.0774    -0.1123 C.3     
  34 C34           -8.6028     1.8145    -0.1340 C.2     
  35 N35           -8.9968     2.7493     0.7435 N.2     
  36 C36           -9.5851     1.6542    -1.0412 C.2     
  37 N37          -10.5921     2.5124    -0.6903 N.pl3   
  38 C38          -10.1883     3.1703     0.4178 C.2     
  39 C39          -11.8680     2.6873    -1.3886 C.3     
  40 H40           -1.1840    -1.8148    -0.0153 H       
  41 H41           -3.3251    -0.6130    -0.0507 H       
  42 H42           -1.2244     3.1294    -0.0436 H       
  43 H43            1.1980    -0.9479     2.0967 H       
  44 H44            0.5410    -2.3245     1.1785 H       
  45 H45            0.6117    -2.2712    -1.2678 H       
  46 H46            1.3189    -0.8568    -2.0857 H       
  47 H47            2.8842    -2.7951    -2.0827 H       
  48 H48            3.5413    -1.4185    -1.1646 H       
  49 H49            3.4706    -1.4718     1.2818 H       
  50 H50            2.7633    -2.8862     2.0997 H       
  51 H51           -4.8485     0.3997    -0.0766 H       
  52 H52            2.0034     1.6722    -0.3635 H       
  53 H53            5.3319    -6.8440     0.2458 H       
  54 H54            7.4264    -5.5160     0.0729 H       
  55 H55            7.2913    -3.0685    -0.1244 H       
  56 H56            1.9347     5.9671     1.4464 H       
  57 H57            4.5653     6.4968     1.2604 H       
  58 H58            6.6305     3.9168     1.0215 H       
  59 H59            6.2684     3.6671    -0.7032 H       
  60 H60            6.5603     5.3101    -0.0839 H       
  61 H61            2.4917    -6.2080    -0.7479 H       
  62 H62            2.9252    -6.7220     0.9002 H       
  63 H63            2.0156    -5.2128     0.6489 H       
  64 H64           -6.2150     2.7180     0.7804 H       
  65 H65           -6.1924     2.7060    -0.9994 H       
  66 H66           -7.2117     0.4455    -0.9971 H       
  67 H67           -7.2343     0.4576     0.7827 H       
  68 H68           -9.5792     0.9789    -1.8840 H       
  69 H69          -10.7573     3.9205     0.9469 H       
  70 H70          -12.6051     1.9979    -0.9769 H       
  71 H71          -12.2162     3.7119    -1.2581 H       
  72 H72          -11.7321     2.4823    -2.4505 H       
@<TRIPOS>BOND
   1    1    2 ar
   2    1   16 1
   3    1    6 ar
   4    2    3 ar
   5    2    7 1
   6    3    4 ar
   7    3   40 1
   8    4    5 ar
   9    4   41 1
  10    5    6 ar
  11    5   13 1
  12    6   42 1
  13    7    8 1
  14    7    9 1
  15    8   12 1
  16    8   43 1
  17    8   44 1
  18    9   10 1
  19    9   45 1
  20    9   46 1
  21   10   11 1
  22   10   47 1
  23   10   48 1
  24   11   12 1
  25   11   17 1
  26   12   49 1
  27   12   50 1
  28   13   14 2
  29   13   15 am
  30   15   32 1
  31   15   51 1
  32   16   23 am
  33   16   52 1
  34   17   18 ar
  35   17   22 ar
  36   18   19 ar
  37   18   31 1
  38   19   20 ar
  39   19   53 1
  40   20   21 ar
  41   20   54 1
  42   21   22 ar
  43   21   55 1
  44   23   24 1
  45   23   25 2
  46   24   26 2
  47   24   29 1
  48   26   27 1
  49   26   56 1
  50   27   28 2
  51   27   57 1
  52   28   29 1
  53   28   30 1
  54   30   58 1
  55   30   59 1
  56   30   60 1
  57   31   61 1
  58   31   62 1
  59   31   63 1
  60   32   33 1
  61   32   64 1
  62   32   65 1
  63   33   34 1
  64   33   66 1
  65   33   67 1
  66   34   35 1
  67   34   36 2
  68   35   38 2
  69   36   37 1
  70   36   68 1
  71   37   38 1
  72   37   39 1
  73   38   69 1
  74   39   70 1
  75   39   71 1
  76   39   72 1

#	End of record

