#	Name: ASD08150015
#	Creating user name:	WinNT
#	Creation time:	15. 06. 2019 21:15

#	Modifying user name:	WinNT
#	Modification time:	15. 06. 2019 21:15

#	Program:	/corina/corina34_cracker 3.40 0067  02.08.2006

@<TRIPOS>MOLECULE
ASD08150015
  45   49    0    0    0
SMALL
NO_CHARGES


@<TRIPOS>ATOM
   1 N1             0.0068     1.1899     0.3017 N.2     
   2 C2             0.0953    -0.1034     0.2298 C.2     
   3 N3             1.2683    -0.7629     0.0428 N.am    
   4 C4             2.4304    -0.0803    -0.0804 C.2     
   5 C5             2.3651     1.3867    -0.0035 C.ar    
   6 C6             3.5033     2.1822    -0.1186 C.ar    
   7 C7             3.3846     3.5524    -0.0396 C.ar    
   8 C8             2.1429     4.1438     0.1538 C.ar    
   9 C9             1.0064     3.3758     0.2705 C.ar    
  10 C10            1.1007     1.9847     0.1929 C.ar    
  11 O11            3.4886    -0.6582    -0.2479 O.2     
  12 C12           -1.1679    -0.9148     0.3610 C.3     
  13 S13           -2.5523     0.1834     0.7529 S.3     
  14 N14           -5.7681     0.6010     1.3968 N.2     
  15 C15           -7.0388     0.4136     1.6073 C.2     
  16 N16           -7.3383    -0.9118     1.4976 N.pl3   
  17 C17           -6.1736    -1.5734     1.2010 C.ar    
  18 N18           -5.8447    -2.8426     0.9822 N.ar    
  19 C19           -4.6003    -3.1765     0.7113 C.ar    
  20 N20           -3.6268    -2.2874     0.6421 N.ar    
  21 C21           -3.8598    -0.9941     0.8465 C.ar    
  22 C22           -5.1735    -0.5885     1.1394 C.ar    
  23 C23            1.2753    -2.2263    -0.0257 C.3     
  24 C24            1.2271    -2.6619    -1.4676 C.ar    
  25 C25            2.3936    -2.7408    -2.2051 C.ar    
  26 C26            2.3494    -3.1403    -3.5277 C.ar    
  27 C27            1.1387    -3.4615    -4.1127 C.ar    
  28 C28           -0.0276    -3.3835    -3.3748 C.ar    
  29 C29            0.0171    -2.9881    -2.0510 C.ar    
  30 H30            4.4716     1.7278    -0.2684 H       
  31 H31            4.2647     4.1720    -0.1284 H       
  32 H32            2.0681     5.2195     0.2138 H       
  33 H33            0.0462     3.8470     0.4207 H       
  34 H34           -1.3677    -1.4304    -0.5784 H       
  35 H35           -1.0479    -1.6473     1.1591 H       
  36 H36           -7.7507     1.1930     1.8353 H       
  37 H37           -8.2142    -1.3134     1.6088 H       
  38 H38           -4.3671    -4.2169     0.5390 H       
  39 H39            2.1847    -2.6074     0.4388 H       
  40 H40            0.4059    -2.6189     0.5017 H       
  41 H41            3.3394    -2.4899    -1.7481 H       
  42 H42            3.2606    -3.2012    -4.1042 H       
  43 H43            1.1041    -3.7729    -5.1462 H       
  44 H44           -0.9735    -3.6340    -3.8319 H       
  45 H45           -0.8938    -2.9307    -1.4735 H       
@<TRIPOS>BOND
   1    1    2 2
   2    1   10 1
   3    2    3 1
   4    2   12 1
   5    3    4 am
   6    3   23 1
   7    4    5 1
   8    4   11 2
   9    5    6 ar
  10    5   10 ar
  11    6    7 ar
  12    6   30 1
  13    7    8 ar
  14    7   31 1
  15    8    9 ar
  16    8   32 1
  17    9   10 ar
  18    9   33 1
  19   12   13 1
  20   12   34 1
  21   12   35 1
  22   13   21 1
  23   14   15 2
  24   14   22 1
  25   15   16 1
  26   15   36 1
  27   16   17 1
  28   16   37 1
  29   17   18 ar
  30   17   22 ar
  31   18   19 ar
  32   19   20 ar
  33   19   38 1
  34   20   21 ar
  35   21   22 ar
  36   23   24 1
  37   23   39 1
  38   23   40 1
  39   24   25 ar
  40   24   29 ar
  41   25   26 ar
  42   25   41 1
  43   26   27 ar
  44   26   42 1
  45   27   28 ar
  46   27   43 1
  47   28   29 ar
  48   28   44 1
  49   29   45 1

#	End of record

