#	Name: ASD01150679
#	Creating user name:	WinNT
#	Creation time:	15. 06. 2019 19:04

#	Modifying user name:	WinNT
#	Modification time:	15. 06. 2019 19:04

#	Program:	/corina/corina34_cracker 3.40 0067  02.08.2006

@<TRIPOS>MOLECULE
ASD01150679
  46   49    0    0    0
SMALL
NO_CHARGES


@<TRIPOS>ATOM
   1 C1             0.0011     1.5549    -0.5439 C.2     
   2 C2            -0.7742     0.9869     0.6168 C.3     
   3 C3             3.6628     3.5366     0.1416 C.ar    
   4 C4             2.5125     4.3198     0.0496 C.ar    
   5 C5             1.2676     3.6749    -0.1800 C.ar    
   6 C6             1.2567     2.2719    -0.3057 C.ar    
   7 C7             2.4675     1.5730    -0.1985 C.ar    
   8 N8             3.5932     2.2051     0.0151 N.ar    
   9 C9             2.7854     5.7437     0.2107 C.2     
  10 C10            4.0726     6.0272     0.4154 C.2     
  11 S11            5.0557     4.5733     0.4198 S.3     
  12 C12            4.6193     7.4308     0.6134 C.3     
  13 C13            3.5745     8.4396     0.1306 C.3     
  14 C14            2.2231     8.0977     0.7657 C.3     
  15 C15            1.6927     6.8030     0.1477 C.3     
  16 C16            2.4724     0.0718    -0.3307 C.3     
  17 C17            0.0172     4.4552    -0.2837 C.ar    
  18 C18           -0.9262     4.4063     0.7452 C.ar    
  19 C19           -2.0907     5.1358     0.6449 C.ar    
  20 C20           -2.3275     5.9189    -0.4781 C.ar    
  21 C21           -1.3918     5.9699    -1.5039 C.ar    
  22 C22           -0.2221     5.2483    -1.4084 C.ar    
  23 O23           -3.4766     6.6361    -0.5734 O.3     
  24 C24           -3.6561     7.4199    -1.7548 C.3     
  25 O25           -0.4117     1.4142    -1.6761 O.2     
  26 H26           -1.4256     1.7570     1.0302 H       
  27 H27           -1.3774     0.1462     0.2743 H       
  28 H28           -0.0803     0.6469     1.3856 H       
  29 H29            4.8260     7.5965     1.6707 H       
  30 H30            5.5365     7.5503     0.0366 H       
  31 H31            3.8734     9.4449     0.4274 H       
  32 H32            3.4912     8.3874    -0.9550 H       
  33 H33            2.3489     7.9639     1.8401 H       
  34 H34            1.5173     8.9069     0.5782 H       
  35 H35            1.4161     6.9809    -0.8915 H       
  36 H36            0.8210     6.4620     0.7063 H       
  37 H37            2.6866    -0.2012    -1.3640 H       
  38 H38            3.2378    -0.3479     0.3221 H       
  39 H39            1.4965    -0.3212    -0.0459 H       
  40 H40           -0.7432     3.7973     1.6181 H       
  41 H41           -2.8206     5.0985     1.4400 H       
  42 H42           -1.5799     6.5793    -2.3755 H       
  43 H43            0.5067     5.2920    -2.2043 H       
  44 H44           -3.6442     6.7682    -2.6284 H       
  45 H45           -4.6120     7.9411    -1.7032 H       
  46 H46           -2.8490     8.1481    -1.8337 H       
@<TRIPOS>BOND
   1    1    2 1
   2    1    6 1
   3    1   25 2
   4    2   26 1
   5    2   27 1
   6    2   28 1
   7    3    4 ar
   8    3    8 ar
   9    3   11 1
  10    4    5 ar
  11    4    9 1
  12    5    6 ar
  13    5   17 1
  14    6    7 ar
  15    7    8 ar
  16    7   16 1
  17    9   10 2
  18    9   15 1
  19   10   11 1
  20   10   12 1
  21   12   13 1
  22   12   29 1
  23   12   30 1
  24   13   14 1
  25   13   31 1
  26   13   32 1
  27   14   15 1
  28   14   33 1
  29   14   34 1
  30   15   35 1
  31   15   36 1
  32   16   37 1
  33   16   38 1
  34   16   39 1
  35   17   18 ar
  36   17   22 ar
  37   18   19 ar
  38   18   40 1
  39   19   20 ar
  40   19   41 1
  41   20   21 ar
  42   20   23 1
  43   21   22 ar
  44   21   42 1
  45   22   43 1
  46   23   24 1
  47   24   44 1
  48   24   45 1
  49   24   46 1

#	End of record

