#	Name: ASD03430739
#	Creating user name:	WinNT
#	Creation time:	15. 06. 2019 20:41

#	Modifying user name:	WinNT
#	Modification time:	15. 06. 2019 20:41

#	Program:	/corina/corina34_cracker 3.40 0067  02.08.2006

@<TRIPOS>MOLECULE
ASD03430739
  54   60    0    0    0
SMALL
NO_CHARGES


@<TRIPOS>ATOM
   1 C1            -0.0167     1.3822     0.0096 C.ar    
   2 C2             0.0021    -0.0041     0.0020 C.ar    
   3 C3             1.2029    -0.6817    -0.0115 C.ar    
   4 C4             2.4087     0.0130    -0.0088 C.ar    
   5 C5             2.3861     1.4041    -0.0089 C.ar    
   6 C6             1.1814     2.0869     0.0020 C.ar    
   7 O7             3.4712    -0.8419     0.0104 O.3     
   8 C8             1.5508    -2.1459    -0.0424 C.3     
   9 C9             3.0391    -2.1477    -0.4170 C.3     
  10 C10            0.4204    -3.8579     1.0056 C.ar    
  11 C11            1.3007    -2.8201     1.2734 C.ar    
  12 C12            0.7257    -2.9059    -1.0413 C.2     
  13 N13            0.1020    -3.8847    -0.3559 N.am    
  14 O14            0.6375    -2.6824    -2.2302 O.2     
  15 C15            1.7552    -2.5942     2.5661 C.ar    
  16 C16            1.3300    -3.4168     3.6167 C.ar    
  17 C17            0.4377    -4.4680     3.3264 C.ar    
  18 C18           -0.0006    -4.6769     2.0567 C.ar    
  19 C19           -0.8025    -4.8625    -0.9658 C.3     
  20 O20           -1.2114     2.0356     0.0189 O.3     
  21 O21            1.1866     3.4487     0.0097 O.3     
  22 C22           -1.1861     3.4153     0.4012 C.3     
  23 C23           -0.0368     4.0994    -0.3500 C.3     
  24 C24           -2.2121    -4.3304    -0.9350 C.ar    
  25 C25           -2.6882    -3.5758    -1.9912 C.ar    
  26 S26            2.8502    -1.3862     3.2321 S.3     
  27 C27            2.6642    -2.0435     4.7957 C.2     
  28 N28            1.8720    -3.0473     4.7931 N.2     
  29 C29           -3.9800    -3.0869    -1.9654 C.ar    
  30 C30           -4.7997    -3.3536    -0.8784 C.ar    
  31 C31           -4.3196    -4.1110     0.1802 C.ar    
  32 C32           -3.0289    -4.6024     0.1469 C.ar    
  33 O33           -6.0707    -2.8734    -0.8503 O.3     
  34 C34           -6.8576    -3.1873     0.3004 C.3     
  35 H35           -0.9268    -0.5550     0.0070 H       
  36 H36            3.3148     1.9554    -0.0176 H       
  37 H37            3.1671    -2.2646    -1.4931 H       
  38 H38            3.5734    -2.9285     0.1243 H       
  39 H39            0.0985    -5.1153     4.1216 H       
  40 H40           -0.6849    -5.4883     1.8572 H       
  41 H41           -0.5033    -5.0392    -1.9990 H       
  42 H42           -0.7551    -5.7982    -0.4088 H       
  43 H43           -2.1316     3.8880     0.1353 H       
  44 H44           -1.0232     3.4963     1.4759 H       
  45 H45            0.0100     5.1519    -0.0705 H       
  46 H46           -0.1958     4.0107    -1.4247 H       
  47 H47           -2.0495    -3.3681    -2.8370 H       
  48 H48            3.1548    -1.6596     5.6779 H       
  49 H49           -4.3513    -2.4972    -2.7905 H       
  50 H50           -4.9558    -4.3200     1.0275 H       
  51 H51           -2.6547    -5.1920     0.9707 H       
  52 H52           -6.3738    -2.7875     1.1916 H       
  53 H53           -7.8481    -2.7446     0.1951 H       
  54 H54           -6.9513    -4.2694     0.3924 H       
@<TRIPOS>BOND
   1    1    2 ar
   2    1    6 ar
   3    1   20 1
   4    2    3 ar
   5    2   35 1
   6    3    4 ar
   7    3    8 1
   8    4    5 ar
   9    4    7 1
  10    5    6 ar
  11    5   36 1
  12    6   21 1
  13    7    9 1
  14    8    9 1
  15    8   11 1
  16    8   12 1
  17    9   37 1
  18    9   38 1
  19   10   11 ar
  20   10   13 1
  21   10   18 ar
  22   11   15 ar
  23   12   13 am
  24   12   14 2
  25   13   19 1
  26   15   16 ar
  27   15   26 1
  28   16   17 ar
  29   16   28 1
  30   17   18 ar
  31   17   39 1
  32   18   40 1
  33   19   24 1
  34   19   41 1
  35   19   42 1
  36   20   22 1
  37   21   23 1
  38   22   23 1
  39   22   43 1
  40   22   44 1
  41   23   45 1
  42   23   46 1
  43   24   25 ar
  44   24   32 ar
  45   25   29 ar
  46   25   47 1
  47   26   27 1
  48   27   28 2
  49   27   48 1
  50   29   30 ar
  51   29   49 1
  52   30   31 ar
  53   30   33 1
  54   31   32 ar
  55   31   50 1
  56   32   51 1
  57   33   34 1
  58   34   52 1
  59   34   53 1
  60   34   54 1

#	End of record

