#	Name: ASD02198318
#	Creating user name:	WinNT
#	Creation time:	15. 06. 2019 20:19

#	Modifying user name:	WinNT
#	Modification time:	15. 06. 2019 20:19

#	Program:	/corina/corina34_cracker 3.40 0067  02.08.2006

@<TRIPOS>MOLECULE
ASD02198318
  34   36    0    0    0
SMALL
NO_CHARGES


@<TRIPOS>ATOM
   1 C1             1.5929     1.1576    -2.5293 C.2     
   2 C2             1.1094    -0.1317    -2.3974 C.2     
   3 S3             2.0872     1.7100    -0.9311 S.3     
   4 C4             1.6179     0.2147    -0.2507 C.2     
   5 N5             1.1459    -0.5829    -1.1656 N.2     
   6 N6             0.6317    -0.8757    -3.4640 N.pl3   
   7 C7             1.6800     1.8931    -3.7256 C.2     
   8 C8             1.4706     3.3584    -3.7104 C.ar    
   9 O9             1.9279     1.3236    -4.7749 O.2     
  10 N10            1.7250    -0.1042     1.0839 N.pl3   
  11 C11            1.3142    -1.3650     1.5385 C.ar    
  12 C12            2.2426    -2.3891     1.6841 C.ar    
  13 C13            1.6950     4.1102    -4.8643 C.ar    
  14 C14            1.0425     3.9928    -2.5437 C.ar    
  15 C15            0.8492     5.3588    -2.5360 C.ar    
  16 C16            1.0786     6.0994    -3.6820 C.ar    
  17 C17            1.4981     5.4755    -4.8436 C.ar    
  18 C18            1.8345    -3.6322     2.1333 C.ar    
  19 C19            0.5024    -3.8569     2.4373 C.ar    
  20 C20           -0.4247    -2.8387     2.2927 C.ar    
  21 C21           -0.0213    -1.5918     1.8498 C.ar    
  22 F22           -0.9264    -0.5988     1.7090 F       
  23 F23            3.5423    -2.1708     1.3869 F       
  24 F24            0.1065    -5.0720     2.8754 F       
  25 H25            0.6258    -0.4957    -4.3564 H       
  26 H26            0.3031    -1.7767    -3.3184 H       
  27 H27            2.0847     0.5436     1.7100 H       
  28 H28            2.0225     3.6244    -5.7716 H       
  29 H29            0.8625     3.4158    -1.6487 H       
  30 H30            0.5179     5.8511    -1.6336 H       
  31 H31            0.9251     7.1684    -3.6711 H       
  32 H32            1.6757     6.0592    -5.7347 H       
  33 H33            2.5554    -4.4283     2.2467 H       
  34 H34           -1.4631    -3.0168     2.5302 H       
@<TRIPOS>BOND
   1    1    2 2
   2    1    3 1
   3    1    7 1
   4    2    6 1
   5    2    5 1
   6    3    4 1
   7    4    5 2
   8    4   10 1
   9    6   25 1
  10    6   26 1
  11    7    8 1
  12    7    9 2
  13    8   13 ar
  14    8   14 ar
  15   10   11 1
  16   10   27 1
  17   11   12 ar
  18   11   21 ar
  19   12   18 ar
  20   12   23 1
  21   13   17 ar
  22   13   28 1
  23   14   15 ar
  24   14   29 1
  25   15   16 ar
  26   15   30 1
  27   16   17 ar
  28   16   31 1
  29   17   32 1
  30   18   19 ar
  31   18   33 1
  32   19   20 ar
  33   19   24 1
  34   20   21 ar
  35   20   34 1
  36   21   22 1

#	End of record

