#	Name: ASD06170082
#	Creating user name:	WinNT
#	Creation time:	15. 06. 2019 21:05

#	Modifying user name:	WinNT
#	Modification time:	15. 06. 2019 21:05

#	Program:	/corina/corina34_cracker 3.40 0067  02.08.2006

@<TRIPOS>MOLECULE
ASD06170082
  67   71    0    0    0
SMALL
NO_CHARGES


@<TRIPOS>ATOM
   1 N1             0.0731     1.6494    -0.1633 N.pl3   
   2 N2             0.0659     0.3047     0.2193 N.am    
   3 C3             1.3398    -0.0914     0.4207 C.2     
   4 C4             2.1897     1.0781     0.1465 C.2     
   5 C5             1.3388     2.1074    -0.2059 C.2     
   6 C6             3.6538     1.1392     0.2319 C.2     
   7 O7             4.2354     2.1773    -0.0231 O.2     
   8 N8             4.3540     0.0455     0.5926 N.am    
   9 C9            -1.0714    -0.4956     0.3687 C.ar    
  10 C10           -2.0771    -0.4613    -0.5885 C.ar    
  11 C11           -3.1987    -1.2531    -0.4383 C.ar    
  12 C12           -3.3211    -2.0791     0.6640 C.ar    
  13 C13           -2.3215    -2.1156     1.6188 C.ar    
  14 C14           -1.1948    -1.3305     1.4716 C.ar    
  15 O15            1.7127    -1.1983     0.7623 O.2     
  16 C16            1.7565     3.5072    -0.5764 C.3     
  17 C17           -1.1189     2.4410    -0.4775 C.3     
  18 C18           -1.7045     3.0155     0.8140 C.3     
  19 C19           -0.6639     3.9082     1.4930 C.3     
  20 C20           -2.9494     3.8422     0.4859 C.3     
  21 O21           -2.0607     1.9462     1.6925 O.3     
  22 C22            5.7522     0.0526     0.5161 C.ar    
  23 C23            6.4479     1.2494     0.6290 C.ar    
  24 C24            7.8281     1.2553     0.5538 C.ar    
  25 C25            8.5183     0.0638     0.3653 C.ar    
  26 C26            7.8227    -1.1302     0.2528 C.ar    
  27 C27            6.4435    -1.1373     0.3331 C.ar    
  28 O28            9.8762     0.0692     0.2909 O.3     
  29 N29           11.9828     0.6719     3.7848 N.ar    
  30 C30           10.6729     0.7540     3.7813 C.ar    
  31 C31            9.9300     0.5575     2.6243 C.ar    
  32 C32           10.5755     0.2663     1.4352 C.ar    
  33 C33           11.9863     0.1804     1.4507 C.ar    
  34 C34           12.7100    -0.1104     0.2850 C.ar    
  35 C35           14.0680    -0.1859     0.3321 C.ar    
  36 C36           14.7547     0.0233     1.5316 C.ar    
  37 C37           14.0729     0.3099     2.6925 C.ar    
  38 C38           12.6716     0.3940     2.6715 C.ar    
  39 O39           16.1105    -0.0577     1.5518 O.3     
  40 F40            8.5058     2.4189     0.6630 F       
  41 H41            3.8894    -0.7465     0.9053 H       
  42 H42           -1.9825     0.1842    -1.4493 H       
  43 H43           -3.9811    -1.2269    -1.1823 H       
  44 H44           -4.1994    -2.6968     0.7795 H       
  45 H45           -2.4201    -2.7618     2.4785 H       
  46 H46           -0.4126    -1.3625     2.2157 H       
  47 H47            1.7884     4.1262     0.3202 H       
  48 H48            2.7446     3.4819    -1.0359 H       
  49 H49            1.0385     3.9259    -1.2816 H       
  50 H50           -0.8472     3.2566    -1.1475 H       
  51 H51           -1.8603     1.8050    -0.9612 H       
  52 H52           -0.3921     4.7238     0.8229 H       
  53 H53           -1.0811     4.3175     2.4131 H       
  54 H54            0.2230     3.3192     1.7267 H       
  55 H55           -3.6908     3.2062     0.0022 H       
  56 H56           -3.3666     4.2515     1.4060 H       
  57 H57           -2.6777     4.6578    -0.1842 H       
  58 H58           -2.7182     1.3389     1.3264 H       
  59 H59            5.9108     2.1749     0.7751 H       
  60 H60            8.3595    -2.0558     0.1063 H       
  61 H61            5.9027    -2.0684     0.2495 H       
  62 H62           10.1585     0.9807     4.7035 H       
  63 H63            8.8529     0.6309     2.6527 H       
  64 H64           12.1909    -0.2743    -0.6477 H       
  65 H65           14.6216    -0.4103    -0.5677 H       
  66 H66           14.6128     0.4691     3.6143 H       
  67 H67           16.5573     0.7817     1.3762 H       
@<TRIPOS>BOND
   1    1    2 1
   2    1    5 1
   3    1   17 1
   4    2    3 am
   5    2    9 1
   6    3    4 1
   7    3   15 2
   8    4    5 2
   9    4    6 1
  10    5   16 1
  11    6    7 2
  12    6    8 am
  13    8   22 1
  14    8   41 1
  15    9   10 ar
  16    9   14 ar
  17   10   11 ar
  18   10   42 1
  19   11   12 ar
  20   11   43 1
  21   12   13 ar
  22   12   44 1
  23   13   14 ar
  24   13   45 1
  25   14   46 1
  26   16   47 1
  27   16   48 1
  28   16   49 1
  29   17   18 1
  30   17   50 1
  31   17   51 1
  32   18   19 1
  33   18   20 1
  34   18   21 1
  35   19   52 1
  36   19   53 1
  37   19   54 1
  38   20   55 1
  39   20   56 1
  40   20   57 1
  41   21   58 1
  42   22   23 ar
  43   22   27 ar
  44   23   24 ar
  45   23   59 1
  46   24   25 ar
  47   24   40 1
  48   25   26 ar
  49   25   28 1
  50   26   27 ar
  51   26   60 1
  52   27   61 1
  53   28   32 1
  54   29   30 ar
  55   29   38 ar
  56   30   31 ar
  57   30   62 1
  58   31   32 ar
  59   31   63 1
  60   32   33 ar
  61   33   34 ar
  62   33   38 ar
  63   34   35 ar
  64   34   64 1
  65   35   36 ar
  66   35   65 1
  67   36   37 ar
  68   36   39 1
  69   37   38 ar
  70   37   66 1
  71   39   67 1

#	End of record

