#	Name: ASD04910550
#	Creating user name:	WinNT
#	Creation time:	15. 06. 2019 20:56

#	Modifying user name:	WinNT
#	Modification time:	15. 06. 2019 20:56

#	Program:	/corina/corina34_cracker 3.40 0067  02.08.2006

@<TRIPOS>MOLECULE
ASD04910550
  62   65    0    0    0
SMALL
NO_CHARGES


@<TRIPOS>ATOM
   1 C1             0.0433     1.3329    -0.1995 C.ar    
   2 C2             0.1056    -0.0464    -0.2881 C.ar    
   3 C3            -1.0480    -0.7821    -0.4647 C.ar    
   4 C4            -2.2799    -0.1319    -0.5536 C.ar    
   5 C5            -2.3357     1.2598    -0.4630 C.ar    
   6 C6            -1.1752     1.9832    -0.2811 C.ar    
   7 C7            -3.5201    -0.9140    -0.7434 C.2     
   8 N8            -4.7081    -0.2832    -0.8288 N.am    
   9 O9            -3.4684    -2.1258    -0.8224 O.2     
  10 C10           -5.9371    -1.0581    -1.0169 C.3     
  11 C11           -7.1344    -0.1078    -1.0810 C.3     
  12 C12           -8.3986    -0.9049    -1.2745 C.2     
  13 O13           -9.5818    -0.2767    -1.3596 O.3     
  14 O14           -8.3472    -2.1095    -1.3530 O.2     
  15 C15            1.3076     2.1301    -0.0070 C.3     
  16 C16            1.7549     2.7092    -1.3507 C.3     
  17 N17            1.0572     3.2226     0.9365 N.pl3   
  18 C18            3.0220     3.5616    -1.1617 C.3     
  19 C19            2.1315     1.5686    -2.3187 C.3     
  20 C20            3.3454     2.1228    -3.1050 C.3     
  21 C21            4.1243     2.9092    -2.0214 C.3     
  22 C22            1.1782     3.0001     2.3118 C.ar    
  23 C23            1.0657     4.0591     3.2105 C.ar    
  24 C24            1.1918     3.7918     4.5623 C.ar    
  25 C25            1.4246     2.4864     4.9759 C.ar    
  26 N26            1.5264     1.5047     4.0948 N.ar    
  27 C27            1.4061     1.7205     2.7997 C.ar    
  28 N28            1.5536     2.2062     6.3410 N.pl3   
  29 N29            1.4703     3.1356     7.3859 N.2     
  30 C30            1.7762     0.9830     6.8899 C.2     
  31 C31            1.8355     1.1416     8.2329 C.2     
  32 C32            1.6407     2.4986     8.5162 C.2     
  33 C33            1.6297     3.1201     9.8890 C.3     
  34 Cl34           2.1011    -0.1168     9.3988 Cl      
  35 H35            1.0594    -0.5482    -0.2192 H       
  36 H36           -0.9980    -1.8587    -0.5345 H       
  37 H37           -3.2858     1.7688    -0.5310 H       
  38 H38           -1.2170     3.0601    -0.2108 H       
  39 H39           -4.7494     0.6839    -0.7658 H       
  40 H40           -5.8716    -1.6232    -1.9466 H       
  41 H41           -6.0640    -1.7465    -0.1814 H       
  42 H42           -7.2000     0.4574    -0.1513 H       
  43 H43           -7.0076     0.5807    -1.9165 H       
  44 H44          -10.3649    -0.8303    -1.4836 H       
  45 H45            2.0897     1.4814     0.3875 H       
  46 H46            0.9573     3.3159    -1.7796 H       
  47 H47            0.8076     4.1001     0.6072 H       
  48 H48            2.8396     4.5817    -1.4997 H       
  49 H49            3.3182     3.5627    -0.1128 H       
  50 H50            2.4130     0.6741    -1.7630 H       
  51 H51            1.3044     1.3539    -2.9954 H       
  52 H52            3.9520     1.3093    -3.5028 H       
  53 H53            3.0172     2.7878    -3.9038 H       
  54 H54            4.7515     3.6729    -2.4813 H       
  55 H55            4.7277     2.2312    -1.4178 H       
  56 H56            0.8848     5.0646     2.8603 H       
  57 H57            1.1105     4.5885     5.2869 H       
  58 H58            1.4952     0.8940     2.1102 H       
  59 H59            1.8859     0.0529     6.3520 H       
  60 H60            2.6404     3.4287    10.1563 H       
  61 H61            0.9724     3.9896     9.8890 H       
  62 H62            1.2684     2.3915    10.6148 H       
@<TRIPOS>BOND
   1    1    2 ar
   2    1   15 1
   3    1    6 ar
   4    2    3 ar
   5    2   35 1
   6    3    4 ar
   7    3   36 1
   8    4    5 ar
   9    4    7 1
  10    5    6 ar
  11    5   37 1
  12    6   38 1
  13    7    8 am
  14    7    9 2
  15    8   10 1
  16    8   39 1
  17   10   11 1
  18   10   40 1
  19   10   41 1
  20   11   12 1
  21   11   42 1
  22   11   43 1
  23   12   13 1
  24   12   14 2
  25   13   44 1
  26   15   16 1
  27   15   17 1
  28   15   45 1
  29   16   18 1
  30   16   19 1
  31   16   46 1
  32   17   22 1
  33   17   47 1
  34   18   21 1
  35   18   48 1
  36   18   49 1
  37   19   20 1
  38   19   50 1
  39   19   51 1
  40   20   21 1
  41   20   52 1
  42   20   53 1
  43   21   54 1
  44   21   55 1
  45   22   23 ar
  46   22   27 ar
  47   23   24 ar
  48   23   56 1
  49   24   25 ar
  50   24   57 1
  51   25   26 ar
  52   25   28 1
  53   26   27 ar
  54   27   58 1
  55   28   29 1
  56   28   30 1
  57   29   32 2
  58   30   31 2
  59   30   59 1
  60   31   32 1
  61   31   34 1
  62   32   33 1
  63   33   60 1
  64   33   61 1
  65   33   62 1

#	End of record

