#	Name: ASD03091268
#	Creating user name:	WinNT
#	Creation time:	15. 06. 2019 20:30

#	Modifying user name:	WinNT
#	Modification time:	15. 06. 2019 20:30

#	Program:	/corina/corina34_cracker 3.40 0067  02.08.2006

@<TRIPOS>MOLECULE
ASD03091268
  48   52    0    0    0
SMALL
NO_CHARGES


@<TRIPOS>ATOM
   1 N1             0.9828     1.0082    -0.7052 N.2     
   2 C2             1.4253    -0.1075    -1.2254 C.2     
   3 N3             2.7448    -0.3228    -1.5194 N.am    
   4 C4             3.6663     0.6380    -1.2753 C.2     
   5 C5             3.1914     1.9008    -0.6906 C.ar    
   6 C6             4.0620     2.9497    -0.4034 C.ar    
   7 C7             3.5602     4.1173     0.1465 C.ar    
   8 C8             2.1964     4.2438     0.4116 C.ar    
   9 C9             1.3313     3.2245     0.1359 C.ar    
  10 C10            1.8102     2.0343    -0.4204 C.ar    
  11 O11            4.8438     0.4631    -1.5298 O.2     
  12 C12            5.8001     4.6730     0.7531 C.3     
  13 N13            4.4255     5.1753     0.4382 N.3     
  14 C14            3.9742     5.9144     1.6419 C.3     
  15 C15            5.1768     5.8478     2.6336 C.3     
  16 N16            5.2031     4.4193     3.0802 N.3     
  17 C17            5.5718     3.6235     1.8846 C.3     
  18 C18            6.3660     5.8634     1.6075 C.3     
  19 C19            3.8939     4.0071     3.6037 C.3     
  20 C20            3.1621    -1.6009    -2.1013 C.3     
  21 C21            0.4557    -1.1857    -1.5084 C.ar    
  22 C22           -0.5629    -1.4692    -0.5963 C.ar    
  23 C23           -1.4650    -2.4764    -0.8654 C.ar    
  24 C24           -1.3620    -3.2073    -2.0389 C.ar    
  25 C25           -0.3524    -2.9304    -2.9476 C.ar    
  26 C26            0.5513    -1.9211    -2.6915 C.ar    
  27 F27           -2.2486    -4.1933    -2.2977 F       
  28 H28            5.1181     2.8531    -0.6074 H       
  29 H29            1.8201     5.1605     0.8409 H       
  30 H30            0.2781     3.3372     0.3471 H       
  31 H31            6.3970     4.3428    -0.0970 H       
  32 H32            3.7499     6.9504     1.3880 H       
  33 H33            3.0984     5.4321     2.0760 H       
  34 H34            5.1916     6.5984     3.4239 H       
  35 H35            4.7608     2.9469     1.6154 H       
  36 H36            6.4877     3.0626     2.0709 H       
  37 H37            7.3202     5.6208     2.0753 H       
  38 H38            6.4132     6.7939     1.0419 H       
  39 H39            3.1805     3.9357     2.7827 H       
  40 H40            3.9865     3.0362     4.0902 H       
  41 H41            3.5434     4.7438     4.3266 H       
  42 H42            3.0685    -1.5540    -3.1863 H       
  43 H43            4.2000    -1.8001    -1.8344 H       
  44 H44            2.5282    -2.3996    -1.7162 H       
  45 H45           -0.6438    -0.9006     0.3183 H       
  46 H46           -2.2530    -2.6968    -0.1605 H       
  47 H47           -0.2764    -3.5033    -3.8600 H       
  48 H48            1.3345    -1.7030    -3.4024 H       
@<TRIPOS>BOND
   1    1    2 2
   2    1   10 1
   3    2    3 1
   4    2   21 1
   5    3    4 am
   6    3   20 1
   7    4    5 1
   8    4   11 2
   9    5    6 ar
  10    5   10 ar
  11    6    7 ar
  12    6   28 1
  13    7    8 ar
  14    7   13 1
  15    8    9 ar
  16    8   29 1
  17    9   10 ar
  18    9   30 1
  19   12   13 1
  20   12   17 1
  21   12   18 1
  22   12   31 1
  23   13   14 1
  24   14   15 1
  25   14   32 1
  26   14   33 1
  27   15   16 1
  28   15   18 1
  29   15   34 1
  30   16   17 1
  31   16   19 1
  32   17   35 1
  33   17   36 1
  34   18   37 1
  35   18   38 1
  36   19   39 1
  37   19   40 1
  38   19   41 1
  39   20   42 1
  40   20   43 1
  41   20   44 1
  42   21   22 ar
  43   21   26 ar
  44   22   23 ar
  45   22   45 1
  46   23   24 ar
  47   23   46 1
  48   24   25 ar
  49   24   27 1
  50   25   26 ar
  51   25   47 1
  52   26   48 1

#	End of record

