#	Name: ASD03331375
#	Creating user name:	WinNT
#	Creation time:	15. 06. 2019 20:39

#	Modifying user name:	WinNT
#	Modification time:	15. 06. 2019 20:39

#	Program:	/corina/corina34_cracker 3.40 0067  02.08.2006

@<TRIPOS>MOLECULE
ASD03331375
  57   59    0    0    0
SMALL
NO_CHARGES


@<TRIPOS>ATOM
   1 N1            -0.2572     1.5589    -0.6100 N.2     
   2 N2            -0.1328     0.1798    -0.3781 N.am    
   3 C3             1.1846    -0.1007    -0.2405 C.2     
   4 C4             1.8735     1.0589    -0.3781 C.2     
   5 C5             0.9500     2.0883    -0.6104 C.2     
   6 C6             1.8514    -1.4287     0.0176 C.3     
   7 C7             3.3772     1.1361    -0.2808 C.3     
   8 C8             3.8705    -0.1655     0.3683 C.3     
   9 O9             3.2493    -1.2853    -0.2690 O.3     
  10 C10           -1.1449    -0.7071    -0.3050 C.2     
  11 O11           -0.9101    -1.8811    -0.0982 O.2     
  12 N12           -2.4175    -0.2918    -0.4614 N.am    
  13 C13           -4.6992    -0.7349    -1.1588 C.2     
  14 C14           -3.5177    -1.2559    -0.3819 C.3     
  15 C15           -3.9171    -1.4545     1.0816 C.3     
  16 C16           -4.3191    -0.1084     1.6877 C.3     
  17 O17           -4.7621     0.4404    -1.4514 O.2     
  18 C18           -5.0990    -2.4228     1.1609 C.3     
  19 C19           -2.7325    -2.0308     1.8598 C.3     
  20 N20           -5.6861    -1.5751    -1.5285 N.am    
  21 C21           -6.8718    -1.0556    -2.2144 C.3     
  22 C22           -7.8302    -2.2084    -2.5201 C.3     
  23 O23           -8.3145    -2.7627    -1.2953 O.3     
  24 C24            1.2746     3.5207    -0.8200 C.ar    
  25 C25            0.5497     4.5084    -0.1513 C.ar    
  26 C26            0.8569     5.8413    -0.3509 C.ar    
  27 C27            1.8796     6.1962    -1.2114 C.ar    
  28 C28            2.6011     5.2204    -1.8773 C.ar    
  29 C29            2.3075     3.8849    -1.6806 C.ar    
  30 F30           -0.4501     4.1625     0.6888 F       
  31 Cl31           3.8829     5.6757    -2.9560 Cl      
  32 H32            1.7164    -1.7121     1.0614 H       
  33 H33            1.4186    -2.1905    -0.6308 H       
  34 H34            3.8072     1.2382    -1.2772 H       
  35 H35            3.6643     1.9881     0.3354 H       
  36 H36            4.9524    -0.2391     0.2572 H       
  37 H37            3.6144    -0.1625     1.4278 H       
  38 H38           -2.6050     0.6455    -0.6265 H       
  39 H39           -3.1971    -2.2085    -0.8035 H       
  40 H40           -5.1630     0.3022     1.1333 H       
  41 H41           -4.6036    -0.2499     2.7304 H       
  42 H42           -3.4771     0.5815     1.6313 H       
  43 H43           -4.7974    -3.3965     0.7748 H       
  44 H44           -5.4155    -2.5256     2.1988 H       
  45 H45           -5.9260    -2.0361     0.5654 H       
  46 H46           -1.8905    -1.3409     1.8034 H       
  47 H47           -3.0171    -2.1723     2.9025 H       
  48 H48           -2.4461    -2.9898     1.4280 H       
  49 H49           -5.6113    -2.5237    -1.3404 H       
  50 H50           -7.3714    -0.3275    -1.5754 H       
  51 H51           -6.5716    -0.5759    -3.1460 H       
  52 H52           -8.6696    -1.8369    -3.1078 H       
  53 H53           -7.3041    -2.9783    -3.0844 H       
  54 H54           -8.9289    -3.5001    -1.4131 H       
  55 H55            0.2970     6.6068     0.1658 H       
  56 H56            2.1162     7.2388    -1.3647 H       
  57 H57            2.8745     3.1246    -2.1972 H       
@<TRIPOS>BOND
   1    1    2 1
   2    1    5 2
   3    2    3 1
   4    2   10 am
   5    3    4 2
   6    3    6 1
   7    4    5 1
   8    4    7 1
   9    5   24 1
  10    6    9 1
  11    6   32 1
  12    6   33 1
  13    7    8 1
  14    7   34 1
  15    7   35 1
  16    8    9 1
  17    8   36 1
  18    8   37 1
  19   10   11 2
  20   10   12 am
  21   12   14 1
  22   12   38 1
  23   13   17 2
  24   13   20 am
  25   13   14 1
  26   14   15 1
  27   14   39 1
  28   15   16 1
  29   15   18 1
  30   15   19 1
  31   16   40 1
  32   16   41 1
  33   16   42 1
  34   18   43 1
  35   18   44 1
  36   18   45 1
  37   19   46 1
  38   19   47 1
  39   19   48 1
  40   20   21 1
  41   20   49 1
  42   21   22 1
  43   21   50 1
  44   21   51 1
  45   22   23 1
  46   22   52 1
  47   22   53 1
  48   23   54 1
  49   24   25 ar
  50   24   29 ar
  51   25   26 ar
  52   25   30 1
  53   26   27 ar
  54   26   55 1
  55   27   28 ar
  56   27   56 1
  57   28   29 ar
  58   28   31 1
  59   29   57 1

#	End of record

