#	Name: ASD08150606
#	Creating user name:	WinNT
#	Creation time:	15. 06. 2019 21:16

#	Modifying user name:	WinNT
#	Modification time:	15. 06. 2019 21:16

#	Program:	/corina/corina34_cracker 3.40 0067  02.08.2006

@<TRIPOS>MOLECULE
ASD08150606
  51   56    0    0    0
SMALL
NO_CHARGES


@<TRIPOS>ATOM
   1 N1             0.8919     2.9278    -1.5977 N.am    
   2 C2             1.3166     2.2962    -2.7092 C.2     
   3 C3             2.5262     1.5722    -2.7127 C.2     
   4 C4             3.2833     1.5015    -1.5884 C.2     
   5 C5             2.8396     2.1649    -0.4170 C.ar    
   6 C6             3.5870     2.1237     0.7755 C.ar    
   7 N7             3.1753     2.7365     1.8546 N.ar    
   8 C8             2.0297     3.4339     1.8909 C.ar    
   9 C9             1.2139     3.5296     0.7366 C.ar    
  10 C10            1.6309     2.8773    -0.4473 C.ar    
  11 C11            0.0214     4.2580     0.7851 C.ar    
  12 C12           -0.3504     4.8804     1.9659 C.ar    
  13 C13            0.4625     4.7816     3.1040 C.ar    
  14 C14            1.6250     4.0768     3.0724 C.ar    
  15 O15            0.6456     2.3511    -3.7257 O.2     
  16 C16           -1.6136     5.6551     2.0261 C.ar    
  17 C17           -0.3099     3.6450    -1.6214 C.ar    
  18 C18           -0.3036     5.0047    -1.9053 C.ar    
  19 C19           -1.4909     5.7094    -1.9279 C.ar    
  20 C20           -2.6856     5.0628    -1.6677 C.ar    
  21 C21           -2.6953     3.7095    -1.3843 C.ar    
  22 C22           -1.5117     2.9976    -1.3667 C.ar    
  23 C23           -2.7481     5.2132     1.3268 C.ar    
  24 N24           -3.8758     5.8766     1.3617 N.ar    
  25 C25           -4.0041     7.0071     2.0643 C.ar    
  26 C26           -2.9035     7.5182     2.7974 C.ar    
  27 C27           -1.6847     6.8186     2.7784 C.ar    
  28 C28           -5.2236     7.7060     2.0892 C.ar    
  29 C29           -5.3302     8.8548     2.8112 C.ar    
  30 C30           -4.2470     9.3556     3.5308 C.ar    
  31 C31           -3.0500     8.7073     3.5318 C.ar    
  32 C32           -3.9992     3.0093    -1.1005 C.3     
  33 F33           -5.0499     3.9294    -1.1815 F       
  34 F34           -4.1965     1.9921    -2.0404 F       
  35 F35           -3.9615     2.4563     0.1841 F       
  36 H36            2.8514     1.0719    -3.6129 H       
  37 H37            4.2103     0.9474    -1.5862 H       
  38 H38            4.5172     1.5755     0.7994 H       
  39 H39           -0.6051     4.3353    -0.0912 H       
  40 H40            0.1615     5.2721     4.0179 H       
  41 H41            2.2387     4.0105     3.9586 H       
  42 H42            0.6290     5.5103    -2.1079 H       
  43 H43           -1.4866     6.7666    -2.1486 H       
  44 H44           -3.6128     5.6162    -1.6857 H       
  45 H45           -1.5205     1.9395    -1.1503 H       
  46 H46           -2.6886     4.3046     0.7460 H       
  47 H47           -0.8269     7.1803     3.3261 H       
  48 H48           -6.0732     7.3327     1.5368 H       
  49 H49           -6.2697     9.3872     2.8263 H       
  50 H50           -4.3588    10.2696     4.0951 H       
  51 H51           -2.2176     9.1048     4.0936 H       
@<TRIPOS>BOND
   1    1    2 am
   2    1   10 1
   3    1   17 1
   4    2    3 1
   5    2   15 2
   6    3    4 2
   7    3   36 1
   8    4    5 1
   9    4   37 1
  10    5    6 ar
  11    5   10 ar
  12    6    7 ar
  13    6   38 1
  14    7    8 ar
  15    8    9 ar
  16    8   14 ar
  17    9   10 ar
  18    9   11 ar
  19   11   12 ar
  20   11   39 1
  21   12   13 ar
  22   12   16 1
  23   13   14 ar
  24   13   40 1
  25   14   41 1
  26   16   23 ar
  27   16   27 ar
  28   17   18 ar
  29   17   22 ar
  30   18   19 ar
  31   18   42 1
  32   19   20 ar
  33   19   43 1
  34   20   21 ar
  35   20   44 1
  36   21   22 ar
  37   21   32 1
  38   22   45 1
  39   23   24 ar
  40   23   46 1
  41   24   25 ar
  42   25   26 ar
  43   25   28 ar
  44   26   27 ar
  45   26   31 ar
  46   27   47 1
  47   28   29 ar
  48   28   48 1
  49   29   30 ar
  50   29   49 1
  51   30   31 ar
  52   30   50 1
  53   31   51 1
  54   32   33 1
  55   32   34 1
  56   32   35 1

#	End of record

