#	Name: ASD01900037
#	Creating user name:	WinNT
#	Creation time:	15. 06. 2019 19:51

#	Modifying user name:	WinNT
#	Modification time:	15. 06. 2019 19:51

#	Program:	/corina/corina34_cracker 3.40 0067  02.08.2006

@<TRIPOS>MOLECULE
ASD01900037
  33   34    0    0    0
SMALL
NO_CHARGES


@<TRIPOS>ATOM
   1 C1             0.2868     1.6682    -0.1389 C.3     
   2 C2             0.0942     0.1579     0.0128 C.3     
   3 C3             0.8461    -0.3302     1.2527 C.3     
   4 C4             2.3364    -0.0189     1.1007 C.3     
   5 C5             2.5290     1.4914     0.9491 C.3     
   6 C6             1.7771     1.9794    -0.2908 C.3     
   7 C7             2.0040     2.1753     2.1422 C.1     
   8 C8             3.0770    -0.4996     2.3220 C.2     
   9 N9             1.5989     2.7030     3.0629 N.1     
  10 O10            3.6978     0.2882     3.0039 O.2     
  11 N11            3.0494    -1.8049     2.6564 N.am    
  12 C12            3.8148    -2.2678     3.7324 C.ar    
  13 C13            3.9920    -1.4690     4.8544 C.ar    
  14 C14            4.7482    -1.9288     5.9162 C.ar    
  15 C15            5.3289    -3.1838     5.8616 C.ar    
  16 C16            5.1539    -3.9817     4.7447 C.ar    
  17 C17            4.3938    -3.5289     3.6825 C.ar    
  18 Cl18           5.8839    -5.5554     4.6801 Cl      
  19 Cl19           4.9702    -0.9309     7.3193 Cl      
  20 H20           -0.2489     2.0159    -1.0222 H       
  21 H21           -0.1019     2.1746     0.7446 H       
  22 H22           -0.9676    -0.0638     0.1210 H       
  23 H23            0.4829    -0.3485    -0.8707 H       
  24 H24            0.4573     0.1763     2.1361 H       
  25 H25            0.7088    -1.4061     1.3607 H       
  26 H26            2.7251    -0.5253     0.2173 H       
  27 H27            3.5907     1.7131     0.8408 H       
  28 H28            2.1659     1.4730    -1.1743 H       
  29 H29            1.9144     3.0554    -0.3989 H       
  30 H30            2.4990    -2.4235     2.1511 H       
  31 H31            3.5397    -0.4893     4.8972 H       
  32 H32            5.9199    -3.5409     6.6920 H       
  33 H33            4.2573    -4.1522     2.8111 H       
@<TRIPOS>BOND
   1    1    2 1
   2    1    6 1
   3    1   20 1
   4    1   21 1
   5    2    3 1
   6    2   22 1
   7    2   23 1
   8    3    4 1
   9    3   24 1
  10    3   25 1
  11    4    5 1
  12    4    8 1
  13    4   26 1
  14    5    6 1
  15    5    7 1
  16    5   27 1
  17    6   28 1
  18    6   29 1
  19    7    9 3
  20    8   10 2
  21    8   11 am
  22   11   12 1
  23   11   30 1
  24   12   13 ar
  25   12   17 ar
  26   13   14 ar
  27   13   31 1
  28   14   15 ar
  29   14   19 1
  30   15   16 ar
  31   15   32 1
  32   16   17 ar
  33   16   18 1
  34   17   33 1

#	End of record

