#	Name: ASD05490029
#	Creating user name:	WinNT
#	Creation time:	15. 06. 2019 21:00

#	Modifying user name:	WinNT
#	Modification time:	15. 06. 2019 21:00

#	Program:	/corina/corina34_cracker 3.40 0067  02.08.2006

@<TRIPOS>MOLECULE
ASD05490029
  66   70    0    0    0
SMALL
NO_CHARGES


@<TRIPOS>ATOM
   1 O1            -0.0173     1.4248     0.0099 O.3     
   2 N2             2.7162     5.3699     0.0053 N.am    
   3 N3             2.2880     1.3303    -0.0126 N.ar    
   4 C4             3.4867     1.9104    -0.0211 C.ar    
   5 C5             1.1817     2.0564     0.0018 C.ar    
   6 N6             1.2086     3.3789     0.0091 N.ar    
   7 C7             2.3660     4.0319     0.0015 C.ar    
   8 C8             3.5555     3.3024    -0.0142 C.ar    
   9 N9             4.6434     1.1447    -0.0366 N.pl3   
  10 C10            4.0594     5.4635    -0.0126 C.2     
  11 N11            4.5983     4.2283    -0.0196 N.am    
  12 O12            4.6902     6.5042    -0.0150 O.2     
  13 C13            1.7812     6.4976     0.0199 C.3     
  14 C14            1.4739     6.8769     1.4457 C.ar    
  15 N15            0.5215     6.2375     2.0966 N.ar    
  16 C16            0.2145     6.5304     3.3439 C.ar    
  17 C17            0.8949     7.5380     4.0237 C.ar    
  18 C18            1.9097     8.2343     3.3612 C.ar    
  19 C19            2.1987     7.8862     2.0531 C.ar    
  20 C20            0.0021    -0.0041     0.0020 C.3     
  21 C21           -1.4333    -0.5336     0.0129 C.3     
  22 C22           -1.4126    -2.0635     0.0045 C.3     
  23 C23           -2.8479    -2.5931     0.0153 C.3     
  24 C24            0.5477     7.8672     5.4283 C.ar    
  25 C25           -0.4658     7.1678     6.0803 C.ar    
  26 C26            1.2378     8.8729     6.1020 C.ar    
  27 C27            0.9110     9.1746     7.4085 C.ar    
  28 C28           -0.0992     8.4803     8.0494 C.ar    
  29 C29           -0.7843     7.4778     7.3870 C.ar    
  30 C30           -0.4508     8.8136     9.4764 C.3     
  31 N31           -1.4879     9.8538     9.4950 N.3     
  32 C32           -2.0273    10.0379    10.8549 C.3     
  33 C33           -1.8322    11.5227    11.2271 C.3     
  34 C34           -1.7118    12.2166     9.8447 C.3     
  35 C35           -0.9493    11.1474     9.0232 C.3     
  36 H36            4.5841     0.1765    -0.0414 H       
  37 H37            5.5114     1.5775    -0.0427 H       
  38 H38            5.5456     4.0197    -0.0267 H       
  39 H39            2.2297     7.3481    -0.4936 H       
  40 H40            0.8594     6.2120    -0.4868 H       
  41 H41           -0.5721     5.9846     3.8437 H       
  42 H42            2.4569     9.0215     3.8585 H       
  43 H43            2.9766     8.4023     1.5100 H       
  44 H44            0.5123    -0.3556    -0.8948 H       
  45 H45            0.5293    -0.3651     0.8851 H       
  46 H46           -1.9435    -0.1821     0.9097 H       
  47 H47           -1.9605    -0.1726    -0.8702 H       
  48 H48           -0.9024    -2.4150    -0.8923 H       
  49 H49           -0.8854    -2.4246     0.8875 H       
  50 H50           -3.3581    -2.2415     0.9121 H       
  51 H51           -3.3751    -2.2320    -0.8677 H       
  52 H52           -2.8332    -3.6829     0.0093 H       
  53 H53           -1.0014     6.3848     5.5641 H       
  54 H54            2.0273     9.4151     5.6027 H       
  55 H55            1.4453     9.9539     7.9316 H       
  56 H56           -1.5725     6.9391     7.8920 H       
  57 H57           -0.8236     7.9199     9.9769 H       
  58 H58            0.4371     9.1764     9.9942 H       
  59 H59           -3.0882     9.7882    10.8698 H       
  60 H60           -1.4853     9.4051    11.5576 H       
  61 H61           -2.6965    11.8998    11.7736 H       
  62 H62           -0.9192    11.6579    11.8070 H       
  63 H63           -2.6959    12.4089     9.4174 H       
  64 H64           -1.1334    13.1375     9.9192 H       
  65 H65            0.1207    11.2080     9.2218 H       
  66 H66           -1.1464    11.2749     7.9588 H       
@<TRIPOS>BOND
   1    1   20 1
   2    1    5 1
   3    2   13 1
   4    2    7 1
   5    2   10 am
   6    3    4 ar
   7    3    5 ar
   8    4    9 1
   9    4    8 ar
  10    5    6 ar
  11    6    7 ar
  12    7    8 ar
  13    8   11 1
  14    9   36 1
  15    9   37 1
  16   10   11 am
  17   10   12 2
  18   11   38 1
  19   13   14 1
  20   13   39 1
  21   13   40 1
  22   14   15 ar
  23   14   19 ar
  24   15   16 ar
  25   16   17 ar
  26   16   41 1
  27   17   18 ar
  28   17   24 1
  29   18   19 ar
  30   18   42 1
  31   19   43 1
  32   20   21 1
  33   20   44 1
  34   20   45 1
  35   21   22 1
  36   21   46 1
  37   21   47 1
  38   22   23 1
  39   22   48 1
  40   22   49 1
  41   23   50 1
  42   23   51 1
  43   23   52 1
  44   24   25 ar
  45   24   26 ar
  46   25   29 ar
  47   25   53 1
  48   26   27 ar
  49   26   54 1
  50   27   28 ar
  51   27   55 1
  52   28   29 ar
  53   28   30 1
  54   29   56 1
  55   30   31 1
  56   30   57 1
  57   30   58 1
  58   31   32 1
  59   31   35 1
  60   32   33 1
  61   32   59 1
  62   32   60 1
  63   33   34 1
  64   33   61 1
  65   33   62 1
  66   34   35 1
  67   34   63 1
  68   34   64 1
  69   35   65 1
  70   35   66 1

#	End of record

