#	Name: ASD02198337
#	Creating user name:	WinNT
#	Creation time:	15. 06. 2019 20:19

#	Modifying user name:	WinNT
#	Modification time:	15. 06. 2019 20:19

#	Program:	/corina/corina34_cracker 3.40 0067  02.08.2006

@<TRIPOS>MOLECULE
ASD02198337
  39   41    0    0    0
SMALL
NO_CHARGES


@<TRIPOS>ATOM
   1 C1             0.5029     1.5515     0.0790 C.2     
   2 C2             0.6627     0.1791     0.1443 C.2     
   3 S3             2.0862     2.2866     0.3166 S.3     
   4 C4             2.7979     0.7416     0.4771 C.2     
   5 N5             1.9022    -0.1958     0.3575 N.2     
   6 N6            -0.3859    -0.7146    -0.0010 N.pl3   
   7 C7            -0.7058     2.2370    -0.1433 C.2     
   8 C8            -0.7477     3.7135    -0.0476 C.ar    
   9 O9            -1.7186     1.6146    -0.4149 O.2     
  10 N10            4.1380     0.5180     0.7024 N.pl3   
  11 C11           -1.6783     4.4370    -0.7933 C.ar    
  12 C12            0.1396     4.3860     0.7934 C.ar    
  13 C13            0.0976     5.7627     0.8808 C.ar    
  14 C14           -0.8220     6.4789     0.1375 C.ar    
  15 C15           -1.7121     5.8179    -0.6984 C.ar    
  16 C16            4.6001    -0.7804     0.9380 C.ar    
  17 C17            5.9024    -1.1230     0.6086 C.ar    
  18 C18            6.3587    -2.4201     0.8463 C.ar    
  19 C19            5.5004    -3.3639     1.4142 C.ar    
  20 C20            4.2057    -3.0124     1.7383 C.ar    
  21 C21            3.7554    -1.7263     1.5078 C.ar    
  22 O22           -2.6139     6.5270    -1.4273 O.3     
  23 C23           -2.5894     7.9486    -1.2843 C.3     
  24 C24            7.7024    -2.7822     0.5085 C.1     
  25 N25            8.7683    -3.0694     0.2406 N.1     
  26 H26           -1.2852    -0.3860    -0.1570 H       
  27 H27           -0.2209    -1.6689     0.0532 H       
  28 H28            4.7613     1.2612     0.6977 H       
  29 H29           -2.3701     3.9216    -1.4430 H       
  30 H30            0.8588     3.8293     1.3760 H       
  31 H31            0.7850     6.2820     1.5321 H       
  32 H32           -0.8506     7.5561     0.2101 H       
  33 H33            6.5613    -0.3887     0.1693 H       
  34 H34            5.8496    -4.3690     1.5994 H       
  35 H35            3.5435    -3.7438     2.1775 H       
  36 H36            2.7412    -1.4573     1.7637 H       
  37 H37           -2.7811     8.2125    -0.2442 H       
  38 H38           -1.6110     8.3267    -1.5806 H       
  39 H39           -3.3573     8.3909    -1.9188 H       
@<TRIPOS>BOND
   1    1    2 2
   2    1    3 1
   3    1    7 1
   4    2    6 1
   5    2    5 1
   6    3    4 1
   7    4    5 2
   8    4   10 1
   9    6   26 1
  10    6   27 1
  11    7    8 1
  12    7    9 2
  13    8   11 ar
  14    8   12 ar
  15   10   16 1
  16   10   28 1
  17   11   15 ar
  18   11   29 1
  19   12   13 ar
  20   12   30 1
  21   13   14 ar
  22   13   31 1
  23   14   15 ar
  24   14   32 1
  25   15   22 1
  26   16   17 ar
  27   16   21 ar
  28   17   18 ar
  29   17   33 1
  30   18   19 ar
  31   18   24 1
  32   19   20 ar
  33   19   34 1
  34   20   21 ar
  35   20   35 1
  36   21   36 1
  37   22   23 1
  38   23   37 1
  39   23   38 1
  40   23   39 1
  41   24   25 3

#	End of record

