#	Name: ASD01910036
#	Creating user name:	WinNT
#	Creation time:	15. 06. 2019 19:55

#	Modifying user name:	WinNT
#	Modification time:	15. 06. 2019 19:55

#	Program:	/corina/corina34_cracker 3.40 0067  02.08.2006

@<TRIPOS>MOLECULE
ASD01910036
  47   50    0    0    0
SMALL
NO_CHARGES


@<TRIPOS>ATOM
   1 C1            -0.0167     1.3769     0.0096 C.ar    
   2 C2             0.0021    -0.0041     0.0020 C.ar    
   3 C3             1.2081    -0.6806    -0.0127 C.ar    
   4 C4             2.3987     0.0227    -0.0198 C.ar    
   5 C5             2.3866     1.4038    -0.0127 C.ar    
   6 C6             1.1772     2.0861     0.0020 C.ar    
   7 N7             1.1616     3.4868     0.0088 N.pl3   
   8 C8             0.2442     4.2803    -0.6108 C.2     
   9 C9             0.5823     5.5730    -0.3627 C.2     
  10 C10            1.7430     5.5692     0.4336 C.2     
  11 N11            2.0832     4.3173     0.6588 N.2     
  12 N12           -0.8449     3.8450    -1.3634 N.am    
  13 C13           -1.6786     4.7433    -1.9242 C.2     
  14 C14           -2.8338     4.2816    -2.7225 C.ar    
  15 C15           -3.6992     5.2094    -3.3047 C.ar    
  16 C16           -4.7755     4.7717    -4.0485 C.ar    
  17 C17           -4.9983     3.4167    -4.2176 C.ar    
  18 C18           -4.1444     2.4919    -3.6432 C.ar    
  19 C19           -3.0608     2.9160    -2.9022 C.ar    
  20 C20            2.4565     6.7689     0.9374 C.ar    
  21 C21            3.6001     6.6248     1.7203 C.ar    
  22 C22            4.2597     7.7441     2.1863 C.ar    
  23 C23            3.7872     9.0070     1.8779 C.ar    
  24 C24            2.6524     9.1558     1.1011 C.ar    
  25 C25            1.9885     8.0435     0.6246 C.ar    
  26 O26           -1.4806     5.9332    -1.7735 O.2     
  27 N27           -4.3905     1.0442    -3.8294 N.pl3   
  28 O28           -5.3438     0.6683    -4.4876 O.2     
  29 O29           -3.6396     0.2290    -3.3244 O.2     
  30 N30           -5.6942     5.7539    -4.6665 N.pl3   
  31 O31           -5.4996     6.9471    -4.5182 O.2     
  32 O32           -6.6449     5.3690    -5.3235 O.2     
  33 H33           -0.9589     1.9047     0.0170 H       
  34 H34           -0.9261    -0.5562     0.0079 H       
  35 H35            1.2201    -1.7605    -0.0182 H       
  36 H36            3.3389    -0.5085    -0.0306 H       
  37 H37            3.3168     1.9525    -0.0179 H       
  38 H38            0.0547     6.4474    -0.7142 H       
  39 H39           -1.0030     2.8956    -1.4837 H       
  40 H40           -3.5268     6.2673    -3.1728 H       
  41 H41           -5.8428     3.0793    -4.8002 H       
  42 H42           -2.3948     2.1932    -2.4547 H       
  43 H43            3.9695     5.6393     1.9623 H       
  44 H44            5.1462     7.6336     2.7932 H       
  45 H45            4.3060     9.8801     2.2452 H       
  46 H46            2.2876    10.1441     0.8636 H       
  47 H47            1.1027     8.1608     0.0179 H       
@<TRIPOS>BOND
   1    1    2 ar
   2    1    6 ar
   3    1   33 1
   4    2    3 ar
   5    2   34 1
   6    3    4 ar
   7    3   35 1
   8    4    5 ar
   9    4   36 1
  10    5    6 ar
  11    5   37 1
  12    6    7 1
  13    7    8 1
  14    7   11 1
  15    8    9 2
  16    8   12 1
  17    9   10 1
  18    9   38 1
  19   10   11 2
  20   10   20 1
  21   12   13 am
  22   12   39 1
  23   13   14 1
  24   13   26 2
  25   14   15 ar
  26   14   19 ar
  27   15   16 ar
  28   15   40 1
  29   16   17 ar
  30   16   30 1
  31   17   18 ar
  32   17   41 1
  33   18   19 ar
  34   18   27 1
  35   19   42 1
  36   20   21 ar
  37   20   25 ar
  38   21   22 ar
  39   21   43 1
  40   22   23 ar
  41   22   44 1
  42   23   24 ar
  43   23   45 1
  44   24   25 ar
  45   24   46 1
  46   25   47 1
  47   27   28 2
  48   27   29 2
  49   30   31 2
  50   30   32 2

#	End of record

