#	Name: ASD01911938
#	Creating user name:	WinNT
#	Creation time:	15. 06. 2019 19:58

#	Modifying user name:	WinNT
#	Modification time:	15. 06. 2019 19:58

#	Program:	/corina/corina34_cracker 3.40 0067  02.08.2006

@<TRIPOS>MOLECULE
ASD01911938
  44   46    0    0    0
SMALL
NO_CHARGES


@<TRIPOS>ATOM
   1 C1             2.1334    -5.2071     0.8039 C.ar    
   2 C2             2.2434    -4.8611    -0.5391 C.ar    
   3 C3             3.4220    -5.1775    -1.2069 C.ar    
   4 N4             4.3894    -5.7917    -0.5459 N.ar    
   5 C5             4.2471    -6.1029     0.7268 C.ar    
   6 N6             3.1462    -5.8201     1.3939 N.ar    
   7 O7             1.2254    -4.2308    -1.1822 O.3     
   8 C8             0.0908    -3.9721    -0.4808 C.ar    
   9 C9             0.0699    -2.9436     0.4510 C.ar    
  10 C10           -1.0853    -2.6789     1.1656 C.ar    
  11 C11           -2.2220    -3.4390     0.9529 C.ar    
  12 C12           -2.2048    -4.4689     0.0214 C.ar    
  13 C13           -1.0479    -4.7317    -0.6997 C.ar    
  14 N14           -3.3531    -5.2373    -0.1935 N.am    
  15 C15           -3.2415    -6.5470    -0.4912 C.2     
  16 C16           -4.4501    -7.3368    -0.8231 C.ar    
  17 O17           -2.1494    -7.0802    -0.4874 O.2     
  18 C18           -4.3277    -8.6880    -1.1294 C.ar    
  19 F19           -1.1032    -1.6776     2.0724 F       
  20 C20           -5.4737    -9.4161    -1.4392 C.ar    
  21 C21           -6.6993    -8.7567    -1.4290 C.ar    
  22 C22           -6.7408    -7.4101    -1.1142 C.ar    
  23 N23           -5.6415    -6.7492    -0.8203 N.ar    
  24 O24           -5.3972   -10.7367    -1.7441 O.3     
  25 C25           -4.1066   -11.3458    -1.6703 C.3     
  26 C26           -3.8279   -11.7772    -0.2291 C.3     
  27 C27           -4.0678   -12.5710    -2.5859 C.3     
  28 H28            1.2359    -4.9744     1.3579 H       
  29 H29            3.5453    -4.9258    -2.2499 H       
  30 H30            5.0557    -6.6045     1.2377 H       
  31 H31            0.9561    -2.3496     0.6187 H       
  32 H32           -3.1226    -3.2314     1.5116 H       
  33 H33           -1.0328    -5.5320    -1.4247 H       
  34 H34           -4.2300    -4.8277    -0.1284 H       
  35 H35           -3.3588    -9.1651    -1.1273 H       
  36 H36           -7.6082    -9.2904    -1.6647 H       
  37 H37           -7.6899    -6.8948    -1.1052 H       
  38 H38           -3.3484   -10.6303    -1.9885 H       
  39 H39           -4.5861   -12.4927     0.0891 H       
  40 H40           -2.8435   -12.2418    -0.1728 H       
  41 H41           -3.8555   -10.9043     0.4232 H       
  42 H42           -4.2663   -12.2637    -3.6127 H       
  43 H43           -3.0834   -13.0356    -2.5296 H       
  44 H44           -4.8260   -13.2865    -2.2677 H       
@<TRIPOS>BOND
   1    1    2 ar
   2    1    6 ar
   3    1   28 1
   4    2    3 ar
   5    2    7 1
   6    3    4 ar
   7    3   29 1
   8    4    5 ar
   9    5    6 ar
  10    5   30 1
  11    7    8 1
  12    8    9 ar
  13    8   13 ar
  14    9   10 ar
  15    9   31 1
  16   10   11 ar
  17   10   19 1
  18   11   12 ar
  19   11   32 1
  20   12   13 ar
  21   12   14 1
  22   13   33 1
  23   14   15 am
  24   14   34 1
  25   15   16 1
  26   15   17 2
  27   16   18 ar
  28   16   23 ar
  29   18   20 ar
  30   18   35 1
  31   20   21 ar
  32   20   24 1
  33   21   22 ar
  34   21   36 1
  35   22   23 ar
  36   22   37 1
  37   24   25 1
  38   25   26 1
  39   25   27 1
  40   25   38 1
  41   26   39 1
  42   26   40 1
  43   26   41 1
  44   27   42 1
  45   27   43 1
  46   27   44 1

#	End of record

