#	Name: ASD09116092
#	Creating user name:	WinNT
#	Creation time:	15. 06. 2019 21:20

#	Modifying user name:	WinNT
#	Modification time:	15. 06. 2019 21:20

#	Program:	/corina/corina34_cracker 3.40 0067  02.08.2006

@<TRIPOS>MOLECULE
ASD09116092
  76   82    0    0    0
SMALL
NO_CHARGES


@<TRIPOS>ATOM
   1 C1             5.7674    -1.2298     1.3554 C.ar    
   2 N2             4.7543    -2.1495     1.1193 N.pl3   
   3 N3             3.4578    -1.8738     0.6555 N.2     
   4 C4             2.8282    -3.0211     0.5724 C.2     
   5 N5             3.6521    -4.0034     0.9566 N.2     
   6 C6             4.8216    -3.4986     1.2856 C.2     
   7 N7             5.9190    -4.2099     1.7293 N.pl3   
   8 N8             1.5099    -3.1907     0.1511 N.pl3   
   9 C9             6.0780    -0.2330     0.4036 C.ar    
  10 N10            6.4650    -1.2604     2.4821 N.ar    
  11 C11            7.4328    -0.3899     2.7206 C.ar    
  12 N12            7.7684     0.5537     1.8729 N.ar    
  13 C13            7.1232     0.6771     0.7037 C.ar    
  14 C14            0.9848    -4.4768    -0.0006 C.ar    
  15 C15            1.8035    -5.5402    -0.3512 C.ar    
  16 C16            1.2809    -6.8105    -0.4998 C.ar    
  17 C17           -0.0697    -7.0617    -0.3675 C.ar    
  18 C18           -0.8784    -5.9792     0.0176 C.ar    
  19 C19           -0.3684    -4.7202     0.2021 C.ar    
  20 C20            2.2548    -7.9451    -0.7373 C.3     
  21 C21            2.4135    -8.8219     0.5029 C.3     
  22 C22            1.0789    -9.3861     0.9635 C.3     
  23 N23            0.5902   -10.2586    -0.0844 N.3     
  24 C24           -0.0257    -9.4835    -1.1604 C.3     
  25 C25           -0.8576    -8.3186    -0.6415 C.3     
  26 C26           -0.3493   -11.2519     0.4531 C.3     
  27 C27           -0.8433   -12.1902    -0.6717 C.3     
  28 C28           -0.3715   -13.6109    -0.2355 C.3     
  29 C29            0.3746   -12.1940     1.4628 C.3     
  30 C30            1.1783   -13.5761    -0.4036 C.3     
  31 C31           -0.4969   -13.4920     1.3245 C.3     
  32 C32            1.6724   -12.6378     0.7212 C.3     
  33 C33            7.4563     1.6725    -0.2238 C.ar    
  34 C34            6.7682     1.7560    -1.4018 C.ar    
  35 C35            5.7319     0.8576    -1.6953 C.ar    
  36 C36            5.3877    -0.1243    -0.8107 C.ar    
  37 O37            5.0638     0.9641    -2.8748 O.3     
  38 C38            4.0186     0.0200    -3.1159 C.3     
  39 O39            7.0921     2.7221    -2.3001 O.3     
  40 C40            8.1558     3.6078    -1.9451 C.3     
  41 H41            5.8668    -5.1740     1.8223 H       
  42 H42            6.7420    -3.7454     1.9480 H       
  43 H43            0.9572    -2.4159    -0.0367 H       
  44 H44            7.9703    -0.4591     3.6548 H       
  45 H45            2.8587    -5.3737    -0.5099 H       
  46 H46           -1.9337    -6.1449     0.1768 H       
  47 H47           -1.0220    -3.9130     0.4986 H       
  48 H48            1.8913    -8.5585    -1.5617 H       
  49 H49            3.2262    -7.5292    -1.0048 H       
  50 H50            3.0884    -9.6463     0.2724 H       
  51 H51            2.8453    -8.2265     1.3073 H       
  52 H52            1.2143    -9.9530     1.8845 H       
  53 H53            0.3709    -8.5741     1.1297 H       
  54 H54            0.7599    -9.0942    -1.8080 H       
  55 H55           -0.6679   -10.1417    -1.7455 H       
  56 H56           -1.3472    -8.6278     0.2820 H       
  57 H57           -1.6287    -8.0897    -1.3770 H       
  58 H58           -1.1933   -10.7554     0.9319 H       
  59 H59           -1.9304   -12.1565    -0.7444 H       
  60 H60           -0.3892   -11.9145    -1.6234 H       
  61 H61           -0.8833   -14.4490    -0.7084 H       
  62 H62            0.5003   -11.8037     2.4727 H       
  63 H63            1.5968   -14.5746    -0.2767 H       
  64 H64            1.4457   -13.1724    -1.3801 H       
  65 H65           -1.5271   -13.3283     1.6404 H       
  66 H66           -0.0474   -14.3427     1.8367 H       
  67 H67            2.1827   -11.7728     0.2976 H       
  68 H68            2.3338   -13.1750     1.4010 H       
  69 H69            8.2521     2.3704    -0.0091 H       
  70 H70            4.5885    -0.8119    -1.0453 H       
  71 H71            3.5692     0.2163    -4.0894 H       
  72 H72            4.4303    -0.9892    -3.1026 H       
  73 H73            3.2590     0.1128    -2.3397 H       
  74 H74            8.3115     4.3288    -2.7476 H       
  75 H75            7.8978     4.1360    -1.0272 H       
  76 H76            9.0696     3.0342    -1.7896 H       
@<TRIPOS>BOND
   1    1    2 1
   2    1    9 ar
   3    1   10 ar
   4    2    3 1
   5    2    6 1
   6    3    4 2
   7    4    5 1
   8    4    8 1
   9    5    6 2
  10    6    7 1
  11    7   41 1
  12    7   42 1
  13    8   14 1
  14    8   43 1
  15    9   13 ar
  16    9   36 ar
  17   10   11 ar
  18   11   12 ar
  19   11   44 1
  20   12   13 ar
  21   13   33 ar
  22   14   15 ar
  23   14   19 ar
  24   15   16 ar
  25   15   45 1
  26   16   17 ar
  27   16   20 1
  28   17   18 ar
  29   17   25 1
  30   18   19 ar
  31   18   46 1
  32   19   47 1
  33   20   21 1
  34   20   48 1
  35   20   49 1
  36   21   22 1
  37   21   50 1
  38   21   51 1
  39   22   23 1
  40   22   52 1
  41   22   53 1
  42   23   24 1
  43   23   26 1
  44   24   25 1
  45   24   54 1
  46   24   55 1
  47   25   56 1
  48   25   57 1
  49   26   27 1
  50   26   29 1
  51   26   58 1
  52   27   28 1
  53   27   59 1
  54   27   60 1
  55   28   30 1
  56   28   31 1
  57   28   61 1
  58   29   31 1
  59   29   32 1
  60   29   62 1
  61   30   32 1
  62   30   63 1
  63   30   64 1
  64   31   65 1
  65   31   66 1
  66   32   67 1
  67   32   68 1
  68   33   34 ar
  69   33   69 1
  70   34   35 ar
  71   34   39 1
  72   35   36 ar
  73   35   37 1
  74   36   70 1
  75   37   38 1
  76   38   71 1
  77   38   72 1
  78   38   73 1
  79   39   40 1
  80   40   74 1
  81   40   75 1
  82   40   76 1

#	End of record

