#	Name: ASD02038969
#	Creating user name:	WinNT
#	Creation time:	15. 06. 2019 20:17

#	Modifying user name:	WinNT
#	Modification time:	15. 06. 2019 20:17

#	Program:	/corina/corina34_cracker 3.40 0067  02.08.2006

@<TRIPOS>MOLECULE
ASD02038969
  57   59    0    0    0
SMALL
NO_CHARGES


@<TRIPOS>ATOM
   1 N1            -0.9093     1.4867    -1.1674 N.am    
   2 N2             0.1040     3.4635    -0.4498 N.am    
   3 C3             0.1434     2.1273    -0.6215 C.2     
   4 C4             0.5423     6.1933    -1.0469 C.3     
   5 C5             1.0664     7.3424    -1.9105 C.3     
   6 O6             1.9290     8.1709    -1.1285 O.3     
   7 C7             2.4833     9.2456    -1.7504 C.ar    
   8 C8             3.3303    10.0915    -1.0496 C.ar    
   9 C9             2.2060     9.4922    -3.0870 C.ar    
  10 C10            2.7693    10.5830    -3.7195 C.ar    
  11 C11            3.6129    11.4330    -3.0172 C.ar    
  12 C12            3.8935    11.1831    -1.6807 C.ar    
  13 N13            4.1854    12.5399    -3.6586 N.am    
  14 O14            1.1286     1.4998    -0.2840 O.2     
  15 C15            1.1905     4.1604     0.2520 C.3     
  16 C16           -0.4745     5.3806    -1.8443 C.3     
  17 C17           -0.8131     0.1266    -1.4850 C.ar    
  18 C18           -1.9291    -0.6931    -1.3785 C.ar    
  19 C19            3.5068    13.1805    -4.6311 C.2     
  20 N20            4.0994    14.1722    -5.3252 N.am    
  21 O21            2.3601    12.8637    -4.8822 O.2     
  22 C22            3.3619    14.8685    -6.3822 C.3     
  23 C23            0.3966    -0.4038    -1.9124 C.ar    
  24 C24            0.4887    -1.7460    -2.2256 C.ar    
  25 C25           -0.6234    -2.5616    -2.1141 C.ar    
  26 C26           -1.8317    -2.0343    -1.6928 C.ar    
  27 Cl27          -0.5046    -4.2477    -2.5095 Cl      
  28 C28            1.7100     5.2905    -0.6423 C.3     
  29 C29           -1.0233     4.2517    -0.9662 C.3     
  30 C30           -3.0410    -2.9254    -1.5724 C.3     
  31 H31           -1.7349     1.9671    -1.3365 H       
  32 H32            0.0643     6.5982    -0.1549 H       
  33 H33            1.6210     6.9371    -2.7568 H       
  34 H34            0.2272     7.9343    -2.2759 H       
  35 H35            3.5490     9.8966    -0.0101 H       
  36 H36            1.5497     8.8309    -3.6332 H       
  37 H37            2.5539    10.7745    -4.7603 H       
  38 H38            4.5497    11.8440    -1.1338 H       
  39 H39            5.0699    12.8449    -3.4027 H       
  40 H40            0.8139     4.5774     1.1860 H       
  41 H41            1.9986     3.4597     0.4618 H       
  42 H42           -1.2933     6.0285    -2.1570 H       
  43 H43            0.0092     4.9547    -2.7234 H       
  44 H44           -2.8722    -0.2821    -1.0497 H       
  45 H45            5.0142    14.4249    -5.1248 H       
  46 H46            3.9994    15.6324    -6.8274 H       
  47 H47            3.0628    14.1532    -7.1484 H       
  48 H48            2.4747    15.3381    -5.9574 H       
  49 H49            1.2648     0.2325    -2.0004 H       
  50 H50            1.4295    -2.1591    -2.5582 H       
  51 H51            2.1682     4.8661    -1.5357 H       
  52 H52            2.4500     5.8756    -0.0963 H       
  53 H53           -1.6742     3.6101    -1.5603 H       
  54 H54           -1.5856     4.6762    -0.1344 H       
  55 H55           -3.0829    -3.3474    -0.5682 H       
  56 H56           -3.9425    -2.3419    -1.7592 H       
  57 H57           -2.9723    -3.7317    -2.3027 H       
@<TRIPOS>BOND
   1    1   17 1
   2    1    3 am
   3    1   31 1
   4    2    3 am
   5    2   15 1
   6    2   29 1
   7    3   14 2
   8    4    5 1
   9    4   16 1
  10    4   28 1
  11    4   32 1
  12    5    6 1
  13    5   33 1
  14    5   34 1
  15    6    7 1
  16    7    8 ar
  17    7    9 ar
  18    8   12 ar
  19    8   35 1
  20    9   10 ar
  21    9   36 1
  22   10   11 ar
  23   10   37 1
  24   11   12 ar
  25   11   13 1
  26   12   38 1
  27   13   19 am
  28   13   39 1
  29   15   28 1
  30   15   40 1
  31   15   41 1
  32   16   29 1
  33   16   42 1
  34   16   43 1
  35   17   18 ar
  36   17   23 ar
  37   18   26 ar
  38   18   44 1
  39   19   20 am
  40   19   21 2
  41   20   22 1
  42   20   45 1
  43   22   46 1
  44   22   47 1
  45   22   48 1
  46   23   24 ar
  47   23   49 1
  48   24   25 ar
  49   24   50 1
  50   25   26 ar
  51   25   27 1
  52   26   30 1
  53   28   51 1
  54   28   52 1
  55   29   53 1
  56   29   54 1
  57   30   55 1
  58   30   56 1
  59   30   57 1

#	End of record

