#	Name: ASD01028312
#	Creating user name:	WinNT
#	Creation time:	15. 06. 2019 18:56

#	Modifying user name:	WinNT
#	Modification time:	15. 06. 2019 18:56

#	Program:	/corina/corina34_cracker 3.40 0067  02.08.2006

@<TRIPOS>MOLECULE
ASD01028312
  41   45    0    0    0
SMALL
NO_CHARGES


@<TRIPOS>ATOM
   1 C1            -0.0157     1.3069     0.0092 C.ar    
   2 N2             0.0021    -0.0041     0.0020 N.ar    
   3 C3             1.1586     2.0559     0.0020 C.ar    
   4 C4             2.3699     1.4244    -0.0129 C.ar    
   5 C5             2.3850     0.0172    -0.0207 C.ar    
   6 C6             1.1531    -0.6832    -0.0126 C.ar    
   7 C7             3.5917    -0.7011    -0.0355 C.ar    
   8 C8             3.5643    -2.0621    -0.0422 C.ar    
   9 C9             2.3540    -2.7531    -0.0344 C.ar    
  10 C10            1.1663    -2.0891    -0.0204 C.ar    
  11 C11            5.3054    -3.0956     1.3566 C.2     
  12 N12            6.4216    -3.7585     1.7305 N.pl3   
  13 C13            6.4211    -3.7567     3.1053 C.2     
  14 N14            5.3322    -3.1092     3.4868 N.2     
  15 N15            4.6833    -2.7186     2.4458 N.2     
  16 N16            7.4602    -4.3770     1.0316 N.2     
  17 C17            8.4440    -4.9613     1.6790 C.2     
  18 C18            8.4717    -4.9767     3.0897 C.2     
  19 C19            7.4752    -4.3823     3.7975 C.2     
  20 C20            9.5379    -5.6127     0.9172 C.ar    
  21 C21            4.8598    -2.8318    -0.0587 C.3     
  22 C22            9.5211    -5.6043    -0.4762 C.ar    
  23 C23           10.5415    -6.2114    -1.1798 C.ar    
  24 C24           11.5796    -6.8274    -0.5043 C.ar    
  25 C25           11.6014    -6.8388     0.8787 C.ar    
  26 C26           10.5889    -6.2302     1.5924 C.ar    
  27 F27            4.6708    -4.0487    -0.7226 F       
  28 F28            5.8377    -2.0846    -0.7239 F       
  29 H29           -0.9662     1.8197     0.0165 H       
  30 H30            1.1116     3.1349     0.0079 H       
  31 H31            3.2903     1.9894    -0.0191 H       
  32 H32            4.5358    -0.1768    -0.0420 H       
  33 H33            2.3588    -3.8330    -0.0400 H       
  34 H34            0.2374    -2.6400    -0.0144 H       
  35 H35            9.2861    -5.4613     3.6077 H       
  36 H36            7.4912    -4.3911     4.8773 H       
  37 H37            8.7108    -5.1239    -1.0046 H       
  38 H38           10.5293    -6.2058    -2.2597 H       
  39 H39           12.3759    -7.3016    -1.0588 H       
  40 H40           12.4141    -7.3216     1.4010 H       
  41 H41           10.6069    -6.2397     2.6723 H       
@<TRIPOS>BOND
   1    1    2 ar
   2    1    3 ar
   3    1   29 1
   4    2    6 ar
   5    3    4 ar
   6    3   30 1
   7    4    5 ar
   8    4   31 1
   9    5    6 ar
  10    5    7 ar
  11    6   10 ar
  12    7    8 ar
  13    7   32 1
  14    8    9 ar
  15    8   21 1
  16    9   10 ar
  17    9   33 1
  18   10   34 1
  19   11   12 1
  20   11   21 1
  21   11   15 2
  22   12   13 1
  23   12   16 1
  24   13   14 2
  25   13   19 1
  26   14   15 1
  27   16   17 2
  28   17   18 1
  29   17   20 1
  30   18   19 2
  31   18   35 1
  32   19   36 1
  33   20   22 ar
  34   20   26 ar
  35   21   27 1
  36   21   28 1
  37   22   23 ar
  38   22   37 1
  39   23   24 ar
  40   23   38 1
  41   24   25 ar
  42   24   39 1
  43   25   26 ar
  44   25   40 1
  45   26   41 1

#	End of record

