#	Name: ASD03331621
#	Creating user name:	WinNT
#	Creation time:	15. 06. 2019 20:39

#	Modifying user name:	WinNT
#	Modification time:	15. 06. 2019 20:39

#	Program:	/corina/corina34_cracker 3.40 0067  02.08.2006

@<TRIPOS>MOLECULE
ASD03331621
  44   47    0    0    0
SMALL
NO_CHARGES


@<TRIPOS>ATOM
   1 C1             0.2573     1.6425    -0.7356 C.ar    
   2 C2             0.3799     0.2882    -0.8686 C.ar    
   3 C3             1.5984    -0.3355    -0.6384 C.ar    
   4 C4             2.7059     0.3982    -0.2715 C.ar    
   5 C5             2.6053     1.7780    -0.1299 C.ar    
   6 C6             1.3672     2.4066    -0.3648 C.ar    
   7 N7             3.5072     2.7602     0.2155 N.pl3   
   8 C8             2.8854     3.9875     0.2077 C.2     
   9 C9             1.5831     3.8346    -0.1380 C.2     
  10 C10            3.5371     5.2758     0.5282 C.ar    
  11 C11            0.5541     4.9284    -0.2640 C.3     
  12 C12            0.8680     5.7769    -1.4693 C.ar    
  13 C13           -0.8343     4.3063    -0.4258 C.3     
  14 C14            1.1961     7.1102    -1.3095 C.ar    
  15 C15            1.4839     7.8885    -2.4150 C.ar    
  16 C16            1.4441     7.3333    -3.6804 C.ar    
  17 C17            1.1169     5.9998    -3.8402 C.ar    
  18 C18            0.8333     5.2204    -2.7342 C.ar    
  19 C19            4.7584     5.6085    -0.0593 C.ar    
  20 C20            5.3611     6.8119     0.2439 C.ar    
  21 C21            4.7576     7.6878     1.1286 C.ar    
  22 C22            3.5470     7.3637     1.7148 C.ar    
  23 C23            2.9305     6.1664     1.4149 C.ar    
  24 N24           -1.1944     3.5900     0.8003 N.pl3   
  25 O25           -0.9627     4.0886     1.8872 O.2     
  26 O26           -1.7253     2.4959     0.7329 O.2     
  27 H27           -0.6929     2.1213    -0.9206 H       
  28 H28           -0.4782    -0.3018    -1.1548 H       
  29 H29            1.6794    -1.4069    -0.7477 H       
  30 H30            3.6491    -0.0971    -0.0941 H       
  31 H31            4.4407     2.6093     0.4317 H       
  32 H32            0.5721     5.5491     0.6318 H       
  33 H33           -1.5650     5.0927    -0.6151 H       
  34 H34           -0.8249     3.6097    -1.2641 H       
  35 H35            1.2271     7.5439    -0.3209 H       
  36 H36            1.7395     8.9303    -2.2902 H       
  37 H37            1.6683     7.9416    -4.5442 H       
  38 H38            1.0855     5.5662    -4.8288 H       
  39 H39            0.5813     4.1777    -2.8587 H       
  40 H40            5.2309     4.9253    -0.7495 H       
  41 H41            6.3063     7.0706    -0.2100 H       
  42 H42            5.2337     8.6285     1.3629 H       
  43 H43            3.0813     8.0515     2.4051 H       
  44 H44            1.9832     5.9167     1.8694 H       
@<TRIPOS>BOND
   1    1    2 ar
   2    1    6 ar
   3    1   27 1
   4    2    3 ar
   5    2   28 1
   6    3    4 ar
   7    3   29 1
   8    4    5 ar
   9    4   30 1
  10    5    7 1
  11    5    6 ar
  12    6    9 1
  13    7    8 1
  14    7   31 1
  15    8    9 2
  16    8   10 1
  17    9   11 1
  18   10   19 ar
  19   10   23 ar
  20   11   13 1
  21   11   12 1
  22   11   32 1
  23   12   14 ar
  24   12   18 ar
  25   13   24 1
  26   13   33 1
  27   13   34 1
  28   14   15 ar
  29   14   35 1
  30   15   16 ar
  31   15   36 1
  32   16   17 ar
  33   16   37 1
  34   17   18 ar
  35   17   38 1
  36   18   39 1
  37   19   20 ar
  38   19   40 1
  39   20   21 ar
  40   20   41 1
  41   21   22 ar
  42   21   42 1
  43   22   23 ar
  44   22   43 1
  45   23   44 1
  46   24   25 2
  47   24   26 2

#	End of record

