#	Name: ASD01948110
#	Creating user name:	WinNT
#	Creation time:	15. 06. 2019 20:13

#	Modifying user name:	WinNT
#	Modification time:	15. 06. 2019 20:13

#	Program:	/corina/corina34_cracker 3.40 0067  02.08.2006

@<TRIPOS>MOLECULE
ASD01948110
  53   56    0    0    0
SMALL
NO_CHARGES


@<TRIPOS>ATOM
   1 C1             1.7970     1.4188    -1.0548 C.ar    
   2 C2             1.6013     0.0446    -1.1488 C.ar    
   3 C3             1.7836    -0.5977    -2.3656 C.ar    
   4 C4             2.1588     0.1284    -3.4797 C.ar    
   5 C5             2.3534     1.4945    -3.3844 C.ar    
   6 C6             2.1672     2.1402    -2.1745 C.ar    
   7 N7             1.2218    -0.6885    -0.0188 N.pl3   
   8 C8             3.6314    -2.2822    -0.4455 C.2     
   9 C9             2.3519    -2.8721    -0.2942 C.2     
  10 C10            1.1518    -2.0656    -0.0810 C.2     
  11 C11            6.0299    -2.5383    -0.8060 C.3     
  12 N12            4.6879    -3.1032    -0.6443 N.am    
  13 F13            1.6202     2.0481     0.1275 F       
  14 Br14           2.8680     2.4831    -4.9121 Br      
  15 C15            2.2383    -4.2685    -0.3508 C.2     
  16 N16            1.0120    -4.8542    -0.2064 N.am    
  17 C17           -0.0970    -4.1220    -0.0092 C.2     
  18 C18           -0.0587    -2.7265     0.0572 C.2     
  19 C19            4.5111    -4.4443    -0.6945 C.2     
  20 N20            3.3413    -5.0040    -0.5460 N.2     
  21 O21            3.7748    -1.0730    -0.4029 O.2     
  22 C22            0.9044    -6.3140    -0.2672 C.3     
  23 O23           -1.1692    -4.6917     0.1132 O.2     
  24 C24            6.7027    -2.4222     0.5632 C.3     
  25 C25            8.1271    -1.8274     0.4325 C.3     
  26 O26            6.0426    -1.4275     1.3824 O.3     
  27 O27            8.3426    -1.2113     1.7183 O.3     
  28 C28           -1.3273    -1.9441     0.2799 C.3     
  29 C29            7.0534    -0.9776     2.3002 C.3     
  30 C30            6.8743     0.5179     2.5693 C.3     
  31 C31            6.9349    -1.7510     3.6150 C.3     
  32 H32            1.6327    -1.6644    -2.4414 H       
  33 H33            2.3006    -0.3716    -4.4265 H       
  34 H34            2.3199     3.2070    -2.1030 H       
  35 H35            1.0079    -0.2289     0.8082 H       
  36 H36            6.6231    -3.1892    -1.4483 H       
  37 H37            5.9558    -1.5499    -1.2595 H       
  38 H38            5.3724    -5.0760    -0.8545 H       
  39 H39            1.0226    -6.7290     0.7338 H       
  40 H40           -0.0734    -6.5901    -0.6618 H       
  41 H41            1.6839    -6.7090    -0.9186 H       
  42 H42            6.7281    -3.3887     1.0665 H       
  43 H43            8.8589    -2.6155     0.2555 H       
  44 H44            8.1620    -1.0823    -0.3623 H       
  45 H45           -2.1792    -2.6241     0.2749 H       
  46 H46           -1.2754    -1.4339     1.2418 H       
  47 H47           -1.4449    -1.2084    -0.5157 H       
  48 H48            5.8892     0.6940     3.0012 H       
  49 H49            7.6419     0.8562     3.2653 H       
  50 H50            6.9644     1.0689     1.6331 H       
  51 H51            7.0682    -2.8158     3.4234 H       
  52 H52            7.7024    -1.4079     4.3088 H       
  53 H53            5.9499    -1.5805     4.0494 H       
@<TRIPOS>BOND
   1    1    2 ar
   2    1   13 1
   3    1    6 ar
   4    2    3 ar
   5    2    7 1
   6    3    4 ar
   7    3   32 1
   8    4    5 ar
   9    4   33 1
  10    5    6 ar
  11    5   14 1
  12    6   34 1
  13    7   10 1
  14    7   35 1
  15    8    9 1
  16    8   21 2
  17    8   12 am
  18    9   10 1
  19    9   15 2
  20   10   18 2
  21   11   12 1
  22   11   24 1
  23   11   36 1
  24   11   37 1
  25   12   19 1
  26   15   16 1
  27   15   20 1
  28   16   17 am
  29   16   22 1
  30   17   18 1
  31   17   23 2
  32   18   28 1
  33   19   20 2
  34   19   38 1
  35   22   39 1
  36   22   40 1
  37   22   41 1
  38   24   25 1
  39   24   26 1
  40   24   42 1
  41   25   27 1
  42   25   43 1
  43   25   44 1
  44   26   29 1
  45   27   29 1
  46   28   45 1
  47   28   46 1
  48   28   47 1
  49   29   30 1
  50   29   31 1
  51   30   48 1
  52   30   49 1
  53   30   50 1
  54   31   51 1
  55   31   52 1
  56   31   53 1

#	End of record

