#	Name: ASD01916526
#	Creating user name:	WinNT
#	Creation time:	15. 06. 2019 20:07

#	Modifying user name:	WinNT
#	Modification time:	15. 06. 2019 20:07

#	Program:	/corina/corina34_cracker 3.40 0067  02.08.2006

@<TRIPOS>MOLECULE
ASD01916526
  32   33    0    0    0
SMALL
NO_CHARGES


@<TRIPOS>ATOM
   1 O1            -0.0144     1.2088     0.0087 O.3     
   2 N2             0.0021    -0.0041     0.0020 N.2     
   3 C3             1.2271    -0.4372    -0.0120 C.2     
   4 N4             2.0346     0.6383    -0.0139 N.2     
   5 C5             1.2366     1.6788    -0.0007 C.2     
   6 C6             1.6511     3.1277     0.0021 C.3     
   7 C7             1.7773     3.6249    -1.4393 C.3     
   8 C8             2.1821     5.0401    -1.4365 C.1     
   9 C9             2.5050     6.1689    -1.4343 C.1     
  10 C10            1.6630    -1.8798    -0.0239 C.3     
  11 C11            1.7953    -2.3528    -1.4486 C.ar    
  12 C12            3.0028    -2.2228    -2.1097 C.ar    
  13 C13            3.1266    -2.6557    -3.4157 C.ar    
  14 C14            2.0382    -3.2212    -4.0640 C.ar    
  15 C15            0.8278    -3.3504    -3.3985 C.ar    
  16 C16            0.7107    -2.9212    -2.0906 C.ar    
  17 O17            2.1574    -3.6473    -5.3489 O.3     
  18 C18            0.9956    -4.2193    -5.9531 C.3     
  19 H19            0.9003     3.7193     0.5261 H       
  20 H20            2.6116     3.2299     0.5072 H       
  21 H21            2.5281     3.0333    -1.9633 H       
  22 H22            0.8168     3.5227    -1.9444 H       
  23 H23            2.7937     7.1784    -1.4323 H       
  24 H24            2.6247    -1.9729     0.4806 H       
  25 H25            0.9209    -2.4878     0.4934 H       
  26 H26            3.8497    -1.7822    -1.6047 H       
  27 H27            4.0699    -2.5536    -3.9317 H       
  28 H28           -0.0209    -3.7903    -3.9010 H       
  29 H29           -0.2300    -3.0259    -1.5706 H       
  30 H30            0.1912    -3.4839    -5.9619 H       
  31 H31            1.2271    -4.5169    -6.9758 H       
  32 H32            0.6824    -5.0936    -5.3824 H       
@<TRIPOS>BOND
   1    1    2 1
   2    1    5 1
   3    2    3 2
   4    3    4 1
   5    3   10 1
   6    4    5 2
   7    5    6 1
   8    6    7 1
   9    6   19 1
  10    6   20 1
  11    7    8 1
  12    7   21 1
  13    7   22 1
  14    8    9 3
  15    9   23 1
  16   10   11 1
  17   10   24 1
  18   10   25 1
  19   11   12 ar
  20   11   16 ar
  21   12   13 ar
  22   12   26 1
  23   13   14 ar
  24   13   27 1
  25   14   15 ar
  26   14   17 1
  27   15   16 ar
  28   15   28 1
  29   16   29 1
  30   17   18 1
  31   18   30 1
  32   18   31 1
  33   18   32 1

#	End of record

