#	Name: ASD02030430
#	Creating user name:	WinNT
#	Creation time:	15. 06. 2019 20:15

#	Modifying user name:	WinNT
#	Modification time:	15. 06. 2019 20:15

#	Program:	/corina/corina34_cracker 3.40 0067  02.08.2006

@<TRIPOS>MOLECULE
ASD02030430
  34   35    0    0    0
SMALL
NO_CHARGES


@<TRIPOS>ATOM
   1 C1            -0.0102     1.4719     0.0813 C.2     
   2 C2             0.0058    -0.0046     0.0365 C.ar    
   3 C3            -1.1866    -0.7227     0.1490 C.ar    
   4 C4            -1.1644    -2.1011     0.1060 C.ar    
   5 C5             0.0359    -2.7726    -0.0479 C.ar    
   6 C6             1.2209    -2.0674    -0.1595 C.ar    
   7 C7             1.2125    -0.6882    -0.1243 C.ar    
   8 O8             0.8953     2.0729     0.6239 O.2     
   9 O9            -1.0261     2.1519    -0.4846 O.3     
  10 C10            2.5035     0.0784    -0.2527 C.3     
  11 C11            3.3970    -0.1848     0.9721 C.3     
  12 C12            4.6949    -0.8273     0.4408 C.3     
  13 C13            4.7710    -0.3650    -1.0356 C.3     
  14 C14            3.2897    -0.4133    -1.4856 C.3     
  15 C15           -0.9762     3.6007    -0.4025 C.3     
  16 C16           -2.2049     4.1934    -1.0952 C.3     
  17 H17           -2.1239    -0.2000     0.2699 H       
  18 H18           -2.0859    -2.6577     0.1929 H       
  19 H19            0.0476    -3.8520    -0.0806 H       
  20 H20            2.1542    -2.5976    -0.2786 H       
  21 H21            2.2968     1.1450    -0.3418 H       
  22 H22            3.6246     0.7541     1.4769 H       
  23 H23            2.8968    -0.8671     1.6594 H       
  24 H24            5.5572    -0.4633     0.9994 H       
  25 H25            4.6335    -1.9141     0.4975 H       
  26 H26            5.1622     0.6502    -1.1028 H       
  27 H27            5.3765    -1.0533    -1.6252 H       
  28 H28            3.0013    -1.4333    -1.7400 H       
  29 H29            3.1264     0.2528    -2.3328 H       
  30 H30           -0.9669     3.9052     0.6441 H       
  31 H31           -0.0726     3.9615    -0.8939 H       
  32 H32           -2.2142     3.8889    -2.1417 H       
  33 H33           -3.1084     3.8326    -0.6037 H       
  34 H34           -2.1674     5.2810    -1.0335 H       
@<TRIPOS>BOND
   1    1    2 1
   2    1    8 2
   3    1    9 1
   4    2    3 ar
   5    2    7 ar
   6    3    4 ar
   7    3   17 1
   8    4    5 ar
   9    4   18 1
  10    5    6 ar
  11    5   19 1
  12    6    7 ar
  13    6   20 1
  14    7   10 1
  15    9   15 1
  16   10   11 1
  17   10   14 1
  18   10   21 1
  19   11   12 1
  20   11   22 1
  21   11   23 1
  22   12   13 1
  23   12   24 1
  24   12   25 1
  25   13   14 1
  26   13   26 1
  27   13   27 1
  28   14   28 1
  29   14   29 1
  30   15   16 1
  31   15   30 1
  32   15   31 1
  33   16   32 1
  34   16   33 1
  35   16   34 1

#	End of record

