#	Name: ASD01001226
#	Creating user name:	WinNT
#	Creation time:	15. 06. 2019 18:55

#	Modifying user name:	WinNT
#	Modification time:	15. 06. 2019 18:55

#	Program:	/corina/corina34_cracker 3.40 0067  02.08.2006

@<TRIPOS>MOLECULE
ASD01001226
  74   78    0    0    0
SMALL
NO_CHARGES


@<TRIPOS>ATOM
   1 C1             0.1030     0.8624    -0.8513 C.2     
   2 C2            -0.0863    -0.5167    -0.2738 C.3     
   3 N3            -0.9689    -0.4406     0.8930 N.am    
   4 C4            -0.7135    -1.4298    -1.3291 C.3     
   5 C5             0.2810    -1.6474    -2.4713 C.3     
   6 C6            -1.0639    -2.7771    -0.6944 C.3     
   7 C7            -0.5826    -0.9794     2.0664 C.2     
   8 O8             0.5240    -1.4705     2.1747 O.2     
   9 C9            -2.2714     0.2211     0.7842 C.3     
  10 C10           -3.2705    -0.7261     0.1169 C.3     
  11 C11           -4.6696    -0.1089     0.1662 C.3     
  12 N12           -5.6289    -1.0183    -0.4746 N.3     
  13 C13           -1.5049    -0.9731     3.2219 C.ar    
  14 C14           -1.0121    -0.7634     4.5109 C.ar    
  15 C15           -1.8781    -0.7582     5.5847 C.ar    
  16 C16           -3.2324    -0.9608     5.3862 C.ar    
  17 C17           -3.7273    -1.1692     4.1111 C.ar    
  18 C18           -2.8729    -1.1711     3.0280 C.ar    
  19 C19           -4.1724    -0.9548     6.5641 C.3     
  20 N20            0.9606     1.7119    -0.2242 N.am    
  21 C21            1.1660     2.9613    -0.7014 C.2     
  22 C22           -0.4375     2.3999    -2.5018 C.ar    
  23 N23           -0.5564     1.1757    -1.9236 N.2     
  24 O24            1.9307     3.7308    -0.1494 O.2     
  25 C25            1.6683     1.2699     0.9800 C.3     
  26 C26            3.0425     0.7792     0.6034 C.ar    
  27 C27            4.0794     1.6800     0.4475 C.ar    
  28 C28            5.3399     1.2298     0.1020 C.ar    
  29 C29            5.5636    -0.1211    -0.0871 C.ar    
  30 C30            4.5269    -1.0220     0.0697 C.ar    
  31 C31            3.2674    -0.5723     0.4194 C.ar    
  32 C32            0.4304     3.3537    -1.9129 C.ar    
  33 C33            0.5751     4.6144    -2.4768 C.ar    
  34 C34           -0.1447     4.9346    -3.6234 C.ar    
  35 C35           -1.0147     3.9887    -4.2100 C.ar    
  36 C36           -1.1583     2.7307    -3.6442 C.ar    
  37 C37           -0.2312     6.1364    -4.4595 C.2     
  38 C38           -1.0987     5.8653    -5.4477 C.2     
  39 N39           -1.5766     4.5882    -5.3153 N.pl3   
  40 Br40          -1.5893     7.0697    -6.8205 Br      
  41 H41            0.8804    -0.9202     0.0275 H       
  42 H42           -1.6191    -0.9655    -1.7194 H       
  43 H43            1.2241    -2.0150    -2.0669 H       
  44 H44           -0.1238    -2.3785    -3.1711 H       
  45 H45            0.4512    -0.7038    -2.9896 H       
  46 H46           -1.7724    -2.6221     0.1193 H       
  47 H47           -1.5108    -3.4277    -1.4462 H       
  48 H48           -0.1583    -3.2414    -0.3041 H       
  49 H49           -2.6294     0.4844     1.7795 H       
  50 H50           -2.1707     1.1250     0.1835 H       
  51 H51           -2.9808    -0.8870    -0.9215 H       
  52 H52           -3.2754    -1.6798     0.6447 H       
  53 H53           -4.9594     0.0520     1.2046 H       
  54 H54           -4.6648     0.8448    -0.3616 H       
  55 H55           -5.6056    -1.9305    -0.0439 H       
  56 H56           -6.5612    -0.6329    -0.4548 H       
  57 H57            0.0448    -0.6058     4.6672 H       
  58 H58           -1.4982    -0.5960     6.5826 H       
  59 H59           -4.7854    -1.3267     3.9629 H       
  60 H60           -3.2605    -1.3336     2.0331 H       
  61 H61           -4.5339     0.0592     6.7353 H       
  62 H62           -5.0173    -1.6119     6.3580 H       
  63 H63           -3.6458    -1.3073     7.4510 H       
  64 H64            1.7584     2.1045     1.6754 H       
  65 H65            1.1107     0.4615     1.4530 H       
  66 H66            3.9046     2.7354     0.5953 H       
  67 H67            6.1499     1.9337    -0.0205 H       
  68 H68            6.5482    -0.4727    -0.3577 H       
  69 H69            4.7016    -2.0774    -0.0784 H       
  70 H70            2.4574    -1.2761     0.5420 H       
  71 H71            1.2395     5.3390    -2.0297 H       
  72 H72           -1.8236     2.0079    -4.0930 H       
  73 H73            0.3018     7.0636    -4.3089 H       
  74 H74           -2.2163     4.1685    -5.9116 H       
@<TRIPOS>BOND
   1    1    2 1
   2    1   20 1
   3    1   23 2
   4    2    3 1
   5    2    4 1
   6    2   41 1
   7    3    7 am
   8    3    9 1
   9    4    5 1
  10    4    6 1
  11    4   42 1
  12    5   43 1
  13    5   44 1
  14    5   45 1
  15    6   46 1
  16    6   47 1
  17    6   48 1
  18    7    8 2
  19    7   13 1
  20    9   10 1
  21    9   49 1
  22    9   50 1
  23   10   11 1
  24   10   51 1
  25   10   52 1
  26   11   12 1
  27   11   53 1
  28   11   54 1
  29   12   55 1
  30   12   56 1
  31   13   14 ar
  32   13   18 ar
  33   14   15 ar
  34   14   57 1
  35   15   16 ar
  36   15   58 1
  37   16   17 ar
  38   16   19 1
  39   17   18 ar
  40   17   59 1
  41   18   60 1
  42   19   61 1
  43   19   62 1
  44   19   63 1
  45   20   21 am
  46   20   25 1
  47   21   24 2
  48   21   32 1
  49   22   23 1
  50   22   32 ar
  51   22   36 ar
  52   25   26 1
  53   25   64 1
  54   25   65 1
  55   26   27 ar
  56   26   31 ar
  57   27   28 ar
  58   27   66 1
  59   28   29 ar
  60   28   67 1
  61   29   30 ar
  62   29   68 1
  63   30   31 ar
  64   30   69 1
  65   31   70 1
  66   32   33 ar
  67   33   34 ar
  68   33   71 1
  69   34   35 ar
  70   34   37 1
  71   35   36 ar
  72   35   39 1
  73   36   72 1
  74   37   38 2
  75   37   73 1
  76   38   39 1
  77   38   40 1
  78   39   74 1

#	End of record

