#	Name: ASD05730050
#	Creating user name:	WinNT
#	Creation time:	15. 06. 2019 21:02

#	Modifying user name:	WinNT
#	Modification time:	15. 06. 2019 21:02

#	Program:	/corina/corina34_cracker 3.40 0067  02.08.2006

@<TRIPOS>MOLECULE
ASD05730050
  93   98    0    0    0
SMALL
NO_CHARGES


@<TRIPOS>ATOM
   1 N1            -0.0118     1.3947     0.0612 N.pl3   
   2 C2             0.0057    -0.0044     0.0405 C.ar    
   3 C3            -1.0325    -0.7031    -0.5618 C.ar    
   4 C4            -1.0149    -2.0835    -0.5826 C.ar    
   5 C5             0.0408    -2.7733    -0.0012 C.ar    
   6 C6             1.0788    -2.0748     0.6015 C.ar    
   7 C7             1.0641    -0.6942     0.6173 C.ar    
   8 N8             0.0586    -4.1738    -0.0224 N.pl3   
   9 C9             1.2588    -4.8477    -0.1422 C.ar    
  10 N10            1.2611    -6.1685    -0.0468 N.ar    
  11 C11            2.3953    -6.8510    -0.1568 C.ar    
  12 C12            3.5952    -6.1411    -0.3769 C.ar    
  13 C13            3.5400    -4.7427    -0.4705 C.ar    
  14 N14            2.3676    -4.1474    -0.3543 N.ar    
  15 N15            2.4073    -8.2197    -0.0588 N.am    
  16 C16            3.5607    -8.9063    -0.1707 C.2     
  17 C17            4.8229    -8.2000    -0.3989 C.2     
  18 C18            4.8210    -6.8361    -0.4993 C.2     
  19 C19            1.1531    -8.9413     0.1704 C.3     
  20 O20            3.5537   -10.1212    -0.0812 O.2     
  21 C21            6.0926    -8.9576    -0.5216 C.2     
  22 C22            1.0834     2.1317     0.6966 C.3     
  23 C23            1.1827     3.5308     0.0825 C.3     
  24 C24            2.2879     4.3166     0.7917 C.3     
  25 N25            1.9803     4.4120     2.2244 N.3     
  26 C26            1.9267     3.0825     2.8457 C.3     
  27 C27            0.8106     2.2599     2.1978 C.3     
  28 C28            0.5159    -9.2963    -1.1745 C.3     
  29 C29           -0.7272   -10.1566    -0.9387 C.3     
  30 C30            2.9471     5.2767     2.9140 C.3     
  31 C31           -1.3644   -10.5116    -2.2836 C.3     
  32 C32           -1.7637    -9.2275    -3.0135 C.3     
  33 C33           -0.5207    -8.3673    -3.2494 C.3     
  34 C34            0.1166    -8.0123    -1.9044 C.3     
  35 C35            6.9622    -9.3015     0.5322 C.2     
  36 C36            6.6279    -9.4534    -1.6752 C.2     
  37 N37            7.7828   -10.0733    -1.3553 N.am    
  38 N38            7.9690    -9.9648     0.0281 N.2     
  39 C39            6.7657    -8.9630     1.9875 C.3     
  40 C40            6.0359    -9.3312    -3.0557 C.3     
  41 S41            8.8013   -10.8359    -2.4152 S.o2    
  42 C42            9.9542    -9.5402    -2.9467 C.3     
  43 C43           10.9583   -10.1273    -3.9407 C.3     
  44 O44           11.8665    -9.1066    -4.3594 O.3     
  45 O45            9.4719   -11.8049    -1.6211 O.2     
  46 O46            7.9592   -11.2261    -3.4912 O.2     
  47 C47           12.8513    -9.5525    -5.2940 C.3     
  48 H48           -0.7471     1.8766    -0.3487 H       
  49 H49           -1.8537    -0.1666    -1.0136 H       
  50 H50           -1.8224    -2.6268    -1.0507 H       
  51 H51            1.8996    -2.6113     1.0539 H       
  52 H52            1.8713    -0.1510     1.0860 H       
  53 H53           -0.7717    -4.6704     0.0471 H       
  54 H54            4.4373    -4.1655    -0.6381 H       
  55 H55            5.7419    -6.2976    -0.6679 H       
  56 H56            1.3565    -9.8552     0.7286 H       
  57 H57            0.4705    -8.3115     0.7409 H       
  58 H58            2.0207     1.5978     0.5400 H       
  59 H59            1.4191     3.4467    -0.9782 H       
  60 H60            0.2319     4.0498     0.2039 H       
  61 H61            3.2407     3.8043     0.6581 H       
  62 H62            2.3516     5.3182     0.3664 H       
  63 H63            2.8811     2.5760     2.7025 H       
  64 H64            1.7280     3.1878     3.9122 H       
  65 H65           -0.1460     2.7589     2.3525 H       
  66 H66            0.7813     1.2678     2.6484 H       
  67 H67            1.2320    -9.8511    -1.7807 H       
  68 H68           -0.4427   -11.0713    -0.4187 H       
  69 H69           -1.4433    -9.6018    -0.3325 H       
  70 H70            2.9129     6.2768     2.4818 H       
  71 H71            2.6960     5.3299     3.9733 H       
  72 H72            3.9497     4.8651     2.7984 H       
  73 H73           -0.6483   -11.0663    -2.8898 H       
  74 H74           -2.2500   -11.1244    -2.1156 H       
  75 H75           -2.2177    -9.4804    -3.9717 H       
  76 H76           -2.4799    -8.6727    -2.4073 H       
  77 H77            0.1955    -8.9221    -3.8555 H       
  78 H78           -0.8052    -7.4525    -3.7693 H       
  79 H79           -0.5996    -7.4575    -1.2982 H       
  80 H80            1.0021    -7.3994    -2.0724 H       
  81 H81            6.2059    -9.7617     2.4740 H       
  82 H82            7.7372    -8.8545     2.4697 H       
  83 H83            6.2120    -8.0279     2.0714 H       
  84 H84            6.4042    -8.4213    -3.5297 H       
  85 H85            6.3262   -10.1953    -3.6533 H       
  86 H86            4.9492    -9.2885    -2.9825 H       
  87 H87            9.3987    -8.7335    -3.4251 H       
  88 H88           10.4871    -9.1499    -2.0796 H       
  89 H89           11.5138   -10.9340    -3.4623 H       
  90 H90           10.4255   -10.5176    -4.8078 H       
  91 H91           12.3577    -9.9308    -6.1891 H       
  92 H92           13.5013    -8.7196    -5.5620 H       
  93 H93           13.4461   -10.3472    -4.8436 H       
@<TRIPOS>BOND
   1    1    2 1
   2    1   22 1
   3    1   48 1
   4    2    3 ar
   5    2    7 ar
   6    3    4 ar
   7    3   49 1
   8    4    5 ar
   9    4   50 1
  10    5    6 ar
  11    5    8 1
  12    6    7 ar
  13    6   51 1
  14    7   52 1
  15    8    9 1
  16    8   53 1
  17    9   10 ar
  18    9   14 ar
  19   10   11 ar
  20   11   12 ar
  21   11   15 1
  22   12   13 ar
  23   12   18 1
  24   13   14 ar
  25   13   54 1
  26   15   16 am
  27   15   19 1
  28   16   17 1
  29   16   20 2
  30   17   18 2
  31   17   21 1
  32   18   55 1
  33   19   28 1
  34   19   56 1
  35   19   57 1
  36   21   35 1
  37   21   36 2
  38   22   23 1
  39   22   27 1
  40   22   58 1
  41   23   24 1
  42   23   59 1
  43   23   60 1
  44   24   25 1
  45   24   61 1
  46   24   62 1
  47   25   26 1
  48   25   30 1
  49   26   27 1
  50   26   63 1
  51   26   64 1
  52   27   65 1
  53   27   66 1
  54   28   29 1
  55   28   34 1
  56   28   67 1
  57   29   31 1
  58   29   68 1
  59   29   69 1
  60   30   70 1
  61   30   71 1
  62   30   72 1
  63   31   32 1
  64   31   73 1
  65   31   74 1
  66   32   33 1
  67   32   75 1
  68   32   76 1
  69   33   34 1
  70   33   77 1
  71   33   78 1
  72   34   79 1
  73   34   80 1
  74   35   39 1
  75   35   38 2
  76   36   37 1
  77   36   40 1
  78   37   38 1
  79   37   41 am
  80   39   81 1
  81   39   82 1
  82   39   83 1
  83   40   84 1
  84   40   85 1
  85   40   86 1
  86   41   42 1
  87   41   45 2
  88   41   46 2
  89   42   43 1
  90   42   87 1
  91   42   88 1
  92   43   44 1
  93   43   89 1
  94   43   90 1
  95   44   47 1
  96   47   91 1
  97   47   92 1
  98   47   93 1

#	End of record

