#	Name: ASD01140175
#	Creating user name:	WinNT
#	Creation time:	15. 06. 2019 19:00

#	Modifying user name:	WinNT
#	Modification time:	15. 06. 2019 19:00

#	Program:	/corina/corina34_cracker 3.40 0067  02.08.2006

@<TRIPOS>MOLECULE
ASD01140175
  51   52    0    0    0
SMALL
NO_CHARGES


@<TRIPOS>ATOM
   1 C1            -0.0166     1.3759     0.0096 C.ar    
   2 C2             0.0021    -0.0041     0.0020 C.ar    
   3 C3            -1.1957    -0.7155     0.0096 C.ar    
   4 C4            -2.4114    -0.0251     0.0249 C.ar    
   5 C5            -2.4154     1.3605     0.0324 C.ar    
   6 C6            -1.2214     2.0564     0.0305 C.ar    
   7 C7            -1.1813    -2.1983     0.0010 C.ar    
   8 C8            -1.6961    -2.8992    -1.0937 C.ar    
   9 C9            -1.6782    -4.2847    -1.0935 C.ar    
  10 C10           -1.1531    -4.9702    -0.0144 C.ar    
  11 C11           -0.6433    -4.2793     1.0708 C.ar    
  12 C12           -0.6496    -2.8992     1.0813 C.ar    
  13 O13           -3.5845    -0.7103     0.0320 O.3     
  14 C14           -4.7868     0.0619     0.0477 C.3     
  15 O15           -2.2124    -2.2243    -2.1537 O.3     
  16 C16           -0.0740    -5.0364     2.2428 C.3     
  17 C17            1.2797     2.1444     0.0014 C.3     
  18 C18            1.7046     2.4122    -1.4438 C.3     
  19 C19            1.4202    -5.2764     2.0176 C.3     
  20 C20            1.9983    -6.0452     3.2075 C.3     
  21 C21            3.4924    -6.2852     2.9824 C.3     
  22 C22            4.0705    -7.0539     4.1723 C.3     
  23 C23            3.0207     3.1925    -1.4522 C.3     
  24 H24            0.9442    -0.5319    -0.0102 H       
  25 H25           -3.3526     1.8971     0.0443 H       
  26 H26           -1.2287     3.1363     0.0367 H       
  27 H27           -2.0753    -4.8295    -1.9373 H       
  28 H28           -1.1409    -6.0501    -0.0180 H       
  29 H29           -0.2508    -2.3632     1.9299 H       
  30 H30           -4.8065     0.6855     0.9415 H       
  31 H31           -4.8231     0.6957    -0.8384 H       
  32 H32           -5.6478    -0.6064     0.0519 H       
  33 H33           -1.5651    -2.0184    -2.8420 H       
  34 H34           -0.2154    -4.4553     3.1540 H       
  35 H35           -0.5853    -5.9942     2.3396 H       
  36 H36            1.1433     3.0925     0.5216 H       
  37 H37            2.0509     1.5614     0.5047 H       
  38 H38            1.8409     1.4642    -1.9641 H       
  39 H39            0.9333     2.9953    -1.9472 H       
  40 H40            1.5616    -5.8575     1.1063 H       
  41 H41            1.9315    -4.3187     1.9208 H       
  42 H42            1.8569    -5.4641     4.1188 H       
  43 H43            1.4870    -7.0029     3.3043 H       
  44 H44            3.6338    -6.8663     2.0711 H       
  45 H45            4.0037    -5.3274     2.8856 H       
  46 H46            3.9291    -6.4728     5.0836 H       
  47 H47            3.5592    -8.0116     4.2691 H       
  48 H48            5.1350    -7.2249     4.0119 H       
  49 H49            2.8843     4.1406    -0.9320 H       
  50 H50            3.7919     2.6095    -0.9489 H       
  51 H51            3.3234     3.3833    -2.4818 H       
@<TRIPOS>BOND
   1    1    2 ar
   2    1   17 1
   3    1    6 ar
   4    2    3 ar
   5    2   24 1
   6    3    4 ar
   7    3    7 1
   8    4    5 ar
   9    4   13 1
  10    5    6 ar
  11    5   25 1
  12    6   26 1
  13    7    8 ar
  14    7   12 ar
  15    8    9 ar
  16    8   15 1
  17    9   10 ar
  18    9   27 1
  19   10   11 ar
  20   10   28 1
  21   11   12 ar
  22   11   16 1
  23   12   29 1
  24   13   14 1
  25   14   30 1
  26   14   31 1
  27   14   32 1
  28   15   33 1
  29   16   19 1
  30   16   34 1
  31   16   35 1
  32   17   18 1
  33   17   36 1
  34   17   37 1
  35   18   23 1
  36   18   38 1
  37   18   39 1
  38   19   20 1
  39   19   40 1
  40   19   41 1
  41   20   21 1
  42   20   42 1
  43   20   43 1
  44   21   22 1
  45   21   44 1
  46   21   45 1
  47   22   46 1
  48   22   47 1
  49   22   48 1
  50   23   49 1
  51   23   50 1
  52   23   51 1

#	End of record

