#	Name: ASD05503032
#	Creating user name:	WinNT
#	Creation time:	15. 06. 2019 21:01

#	Modifying user name:	WinNT
#	Modification time:	15. 06. 2019 21:01

#	Program:	/corina/corina34_cracker 3.40 0067  02.08.2006

@<TRIPOS>MOLECULE
ASD05503032
  39   40    0    0    0
SMALL
NO_CHARGES


@<TRIPOS>ATOM
   1 C1            -0.1502     1.3616     0.4403 C.ar    
   2 C2            -0.0925    -0.0174     0.2840 C.ar    
   3 C3             1.1378    -0.6542     0.2035 C.ar    
   4 C4             2.3067     0.0894     0.2796 C.ar    
   5 C5             2.2420     1.4687     0.4360 C.ar    
   6 C6             1.0157     2.0994     0.5157 C.ar    
   7 N7            -1.2737    -0.7637     0.2082 N.am    
   8 C8            -1.3334    -1.8521    -0.5844 C.2     
   9 C9            -2.5622    -2.7245    -0.5752 C.3     
  10 O10           -0.3982    -2.1295    -1.3051 O.2     
  11 C11           -2.3728    -3.8827    -1.5567 C.3     
  12 C12           -3.6203    -4.7684    -1.5473 C.3     
  13 N13            3.5486    -0.5486     0.1993 N.am    
  14 C14            4.5816     0.0623    -0.4140 C.2     
  15 C15            5.8633    -0.6517    -0.5900 C.ar    
  16 O16            4.4590     1.2007    -0.8224 O.2     
  17 C17            6.0073    -1.9588    -0.1222 C.ar    
  18 C18            7.2086    -2.6205    -0.2901 C.ar    
  19 C19            8.2685    -1.9885    -0.9208 C.ar    
  20 C20            8.1314    -0.6933    -1.3859 C.ar    
  21 C21            6.9342    -0.0234    -1.2304 C.ar    
  22 Br22           6.7499     1.7476    -1.8674 Br      
  23 F23            7.3504    -3.8857     0.1618 F       
  24 H24           -1.1075     1.8583     0.4985 H       
  25 H25            1.1853    -1.7263     0.0823 H       
  26 H26            3.1515     2.0480     0.4956 H       
  27 H27            0.9681     3.1715     0.6369 H       
  28 H28           -2.0495    -0.4977     0.7261 H       
  29 H29           -2.7191    -3.1204     0.4282 H       
  30 H30           -3.4290    -2.1343    -0.8725 H       
  31 H31           -2.2158    -3.4868    -2.5600 H       
  32 H32           -1.5060    -4.4729    -1.2593 H       
  33 H33           -3.7773    -5.1644    -0.5440 H       
  34 H34           -4.4871    -4.1782    -1.8447 H       
  35 H35           -3.4854    -5.5936    -2.2466 H       
  36 H36            3.6665    -1.4307     0.5851 H       
  37 H37            5.1820    -2.4517     0.3701 H       
  38 H38            9.2056    -2.5096    -1.0495 H       
  39 H39            8.9615    -0.2063    -1.8759 H       
@<TRIPOS>BOND
   1    1    2 ar
   2    1    6 ar
   3    1   24 1
   4    2    3 ar
   5    2    7 1
   6    3    4 ar
   7    3   25 1
   8    4    5 ar
   9    4   13 1
  10    5    6 ar
  11    5   26 1
  12    6   27 1
  13    7    8 am
  14    7   28 1
  15    8    9 1
  16    8   10 2
  17    9   11 1
  18    9   29 1
  19    9   30 1
  20   11   12 1
  21   11   31 1
  22   11   32 1
  23   12   33 1
  24   12   34 1
  25   12   35 1
  26   13   14 am
  27   13   36 1
  28   14   15 1
  29   14   16 2
  30   15   17 ar
  31   15   21 ar
  32   17   18 ar
  33   17   37 1
  34   18   19 ar
  35   18   23 1
  36   19   20 ar
  37   19   38 1
  38   20   21 ar
  39   20   39 1
  40   21   22 1

#	End of record

