#	Name: ASD01230143
#	Creating user name:	WinNT
#	Creation time:	15. 06. 2019 19:11

#	Modifying user name:	WinNT
#	Modification time:	15. 06. 2019 19:11

#	Program:	/corina/corina34_cracker 3.40 0067  02.08.2006

@<TRIPOS>MOLECULE
ASD01230143
  30   30    0    0    0
SMALL
NO_CHARGES


@<TRIPOS>ATOM
   1 C1             0.3732     1.0729    -0.3419 C.3     
   2 C2             0.7951    -0.3613     0.0274 C.3     
   3 N3             0.0558    -1.2756    -0.8699 N.3     
   4 C4            -0.2587    -0.4829    -2.0860 C.3     
   5 C5            -0.6190     0.9122    -1.5165 C.3     
   6 C6             2.2786    -0.5291    -0.1778 C.2     
   7 O7             2.7123    -0.7747    -1.2785 O.2     
   8 O8             3.1182    -0.4055     0.8622 O.3     
   9 C9             1.5909     1.8876    -0.7831 C.3     
  10 C10            2.4985     2.1143     0.3984 C.2     
  11 O11            3.7002     2.6855     0.2216 O.3     
  12 O12            2.1444     1.7819     1.5047 O.2     
  13 C13           -0.3977     1.9844    -2.5521 C.2     
  14 C14            0.2986     1.7203    -3.6298 C.2     
  15 C15           -0.9774     3.3603    -2.3479 C.3     
  16 H16           -0.1158     1.5535     0.5054 H       
  17 H17            0.5352    -0.5692     1.0653 H       
  18 H18            0.6125    -2.0851    -1.0998 H       
  19 H19            0.6117    -0.4187    -2.7391 H       
  20 H20           -1.1082    -0.9130    -2.6165 H       
  21 H21           -1.6479     0.9281    -1.1571 H       
  22 H22            4.0610    -0.5216     0.6814 H       
  23 H23            2.1314     1.3429    -1.5572 H       
  24 H24            1.2613     2.8487    -1.1778 H       
  25 H25            4.2471     2.8103     1.0093 H       
  26 H26            0.5387     2.5113    -4.3249 H       
  27 H27            0.6327     0.7117    -3.8232 H       
  28 H28           -0.6459     3.7555    -1.3876 H       
  29 H29           -0.6399     4.0192    -3.1480 H       
  30 H30           -2.0658     3.3016    -2.3604 H       
@<TRIPOS>BOND
   1    1    2 1
   2    1    9 1
   3    1    5 1
   4    1   16 1
   5    2    3 1
   6    2    6 1
   7    2   17 1
   8    3    4 1
   9    3   18 1
  10    4    5 1
  11    4   19 1
  12    4   20 1
  13    5   13 1
  14    5   21 1
  15    6    7 2
  16    6    8 1
  17    8   22 1
  18    9   10 1
  19    9   23 1
  20    9   24 1
  21   10   11 1
  22   10   12 2
  23   11   25 1
  24   13   14 2
  25   13   15 1
  26   14   26 1
  27   14   27 1
  28   15   28 1
  29   15   29 1
  30   15   30 1

#	End of record

