#	Name: ASD03430806
#	Creating user name:	WinNT
#	Creation time:	15. 06. 2019 20:41

#	Modifying user name:	WinNT
#	Modification time:	15. 06. 2019 20:41

#	Program:	/corina/corina34_cracker 3.40 0067  02.08.2006

@<TRIPOS>MOLECULE
ASD03430806
  50   55    0    0    0
SMALL
NO_CHARGES


@<TRIPOS>ATOM
   1 O1            -0.0162     1.3452     0.0094 O.3     
   2 C2             0.0021    -0.0041     0.0020 C.2     
   3 C3             1.3071    -0.4088    -0.0126 C.2     
   4 C4             2.0903     0.7554    -0.0138 C.2     
   5 C5             1.2408     1.8067    -0.0001 C.2     
   6 C6            -1.1711    -0.8810     0.0089 C.2     
   7 O7            -1.0277    -2.0887     0.0015 O.2     
   8 C8             1.6423     3.2592     0.0034 C.3     
   9 O9             0.8806     6.1234    -5.1570 O.3     
  10 C10            0.3162     4.9355    -5.5166 C.ar    
  11 C11            0.5221     3.9645    -4.5400 C.ar    
  12 C12            1.2872     4.6287    -3.4278 C.3     
  13 C13            1.1308     6.1238    -3.7387 C.3     
  14 O14           -1.6022     2.7918    -7.8773 O.3     
  15 C15           -0.8864     3.3147    -6.8433 C.ar    
  16 C16           -0.6529     2.3593    -5.8614 C.ar    
  17 C17           -1.2837     1.0661    -6.3392 C.3     
  18 C18           -1.5109     1.3577    -7.8415 C.3     
  19 C19            0.0431     2.6838    -4.7180 C.ar    
  20 C20           -0.3929     4.6014    -6.6641 C.ar    
  21 N21            1.7588     3.7370    -1.3766 N.am    
  22 C22            0.7408     4.2807    -2.0730 C.2     
  23 C23            2.7276     4.2122    -3.3946 C.ar    
  24 C24            3.7540     4.2636    -4.3105 C.ar    
  25 C25            5.0086     3.7867    -3.9734 C.ar    
  26 C26            5.2287     3.2591    -2.7145 C.ar    
  27 C27            4.2036     3.2060    -1.7926 C.ar    
  28 C28            2.9380     3.6828    -2.1235 C.ar    
  29 O29           -0.3940     4.4548    -1.6820 O.2     
  30 C30           -3.5266    -1.2780     0.0297 C.3     
  31 O31           -2.4107    -0.3490     0.0236 O.3     
  32 H32            1.6661    -1.4273    -0.0215 H       
  33 H33            3.1692     0.8026    -0.0239 H       
  34 H34            0.8864     3.8438     0.5277 H       
  35 H35            2.6019     3.3697     0.5084 H       
  36 H36            2.0483     6.6652    -3.5077 H       
  37 H37            0.2844     6.5454    -3.1965 H       
  38 H38           -0.6016     0.2267    -6.2040 H       
  39 H39           -2.2302     0.8830    -5.8304 H       
  40 H40           -2.4393     0.9029    -8.1870 H       
  41 H41           -0.6651     1.0097    -8.4346 H       
  42 H42            0.2142     1.9340    -3.9598 H       
  43 H43           -0.5624     5.3496    -7.4244 H       
  44 H44            3.5799     4.6761    -5.2933 H       
  45 H45            5.8139     3.8269    -4.6918 H       
  46 H46            6.2079     2.8869    -2.4514 H       
  47 H47            4.3831     2.7920    -0.8114 H       
  48 H48           -4.4633    -0.7206     0.0415 H       
  49 H49           -3.4858    -1.9009    -0.8639 H       
  50 H50           -3.4686    -1.9098     0.9160 H       
@<TRIPOS>BOND
   1    1    2 1
   2    1    5 1
   3    2    3 2
   4    2    6 1
   5    3    4 1
   6    3   32 1
   7    4    5 2
   8    4   33 1
   9    5    8 1
  10    6    7 2
  11    6   31 1
  12    8   21 1
  13    8   34 1
  14    8   35 1
  15    9   10 1
  16    9   13 1
  17   10   11 ar
  18   10   20 ar
  19   11   12 1
  20   11   19 ar
  21   12   13 1
  22   12   22 1
  23   12   23 1
  24   13   36 1
  25   13   37 1
  26   14   15 1
  27   14   18 1
  28   15   16 ar
  29   15   20 ar
  30   16   17 1
  31   16   19 ar
  32   17   18 1
  33   17   38 1
  34   17   39 1
  35   18   40 1
  36   18   41 1
  37   19   42 1
  38   20   43 1
  39   21   22 am
  40   21   28 1
  41   22   29 2
  42   23   24 ar
  43   23   28 ar
  44   24   25 ar
  45   24   44 1
  46   25   26 ar
  47   25   45 1
  48   26   27 ar
  49   26   46 1
  50   27   28 ar
  51   27   47 1
  52   30   31 1
  53   30   48 1
  54   30   49 1
  55   30   50 1

#	End of record

