#	Name: ASD04170019
#	Creating user name:	WinNT
#	Creation time:	15. 06. 2019 20:48

#	Modifying user name:	WinNT
#	Modification time:	15. 06. 2019 20:48

#	Program:	/corina/corina34_cracker 3.40 0067  02.08.2006

@<TRIPOS>MOLECULE
ASD04170019
  36   38    0    0    0
SMALL
NO_CHARGES


@<TRIPOS>ATOM
   1 O1             0.0021    -0.0041     0.0020 O.2     
   2 C2            -0.0144     1.2115     0.0087 C.2     
   3 C3             1.2547     1.9674     0.0006 C.ar    
   4 C4             2.4748     1.2882    -0.0147 C.ar    
   5 C5             3.6561     1.9985    -0.0221 C.ar    
   6 C6             3.6344     3.3849    -0.0139 C.ar    
   7 C7             2.4258     4.0643     0.0013 C.ar    
   8 C8             1.2386     3.3639     0.0025 C.ar    
   9 F9             4.7951     4.0762    -0.0203 F       
  10 N10           -1.1906     1.8694     0.0179 N.am    
  11 C11           -2.4493     1.1198     0.0198 C.3     
  12 C12           -2.8188     0.7416     1.4558 C.3     
  13 N13           -4.1134     1.3273     1.8114 N.4     
  14 C14           -5.1698     0.8135     0.9363 C.3     
  15 C15           -4.8782     1.1948    -0.5168 C.3     
  16 C16           -3.5678     1.9915    -0.5660 C.3     
  17 C17           -3.7250     3.2357     0.3181 C.3     
  18 C18           -4.0537     2.7894     1.7445 C.3     
  19 H19            2.4928     0.2084    -0.0203 H       
  20 H20            4.6002     1.4742    -0.0339 H       
  21 H21            2.4145     5.1442     0.0079 H       
  22 H22            0.2977     3.8940     0.0144 H       
  23 H23           -1.2038     2.8393     0.0232 H       
  24 H24           -2.3368     0.2157    -0.5786 H       
  25 H25           -2.8773    -0.3436     1.5404 H       
  26 H26           -2.0537     1.1150     2.1365 H       
  27 H27           -4.3314     1.0672     2.7616 H       
  28 H28           -5.2152    -0.2721     1.0232 H       
  29 H29           -6.1272     1.2390     1.2368 H       
  30 H30           -4.7793     0.2914    -1.1187 H       
  31 H31           -5.6927     1.8069    -0.9042 H       
  32 H32           -3.3323     2.2680    -1.5937 H       
  33 H33           -2.7946     3.8036     0.3183 H       
  34 H34           -4.5342     3.8568    -0.0659 H       
  35 H35           -5.0171     3.2047     2.0405 H       
  36 H36           -3.2817     3.1513     2.4236 H       
@<TRIPOS>BOND
   1    1    2 2
   2    2    3 1
   3    2   10 am
   4    3    4 ar
   5    3    8 ar
   6    4    5 ar
   7    4   19 1
   8    5    6 ar
   9    5   20 1
  10    6    7 ar
  11    6    9 1
  12    7    8 ar
  13    7   21 1
  14    8   22 1
  15   10   11 1
  16   10   23 1
  17   11   12 1
  18   11   16 1
  19   11   24 1
  20   12   13 1
  21   12   25 1
  22   12   26 1
  23   13   14 1
  24   13   18 1
  25   13   27 1
  26   14   15 1
  27   14   28 1
  28   14   29 1
  29   15   16 1
  30   15   30 1
  31   15   31 1
  32   16   17 1
  33   16   32 1
  34   17   18 1
  35   17   33 1
  36   17   34 1
  37   18   35 1
  38   18   36 1

#	End of record

