#	Name: ASD05490055
#	Creating user name:	WinNT
#	Creation time:	15. 06. 2019 21:01

#	Modifying user name:	WinNT
#	Modification time:	15. 06. 2019 21:01

#	Program:	/corina/corina34_cracker 3.40 0067  02.08.2006

@<TRIPOS>MOLECULE
ASD05490055
  51   54    0    0    0
SMALL
NO_CHARGES


@<TRIPOS>ATOM
   1 O1            -0.0173     1.4248     0.0099 O.3     
   2 N2             2.2883     1.3279    -0.0127 N.ar    
   3 C3             3.4877     1.9005    -0.0217 C.ar    
   4 C4             1.1818     2.0565     0.0018 C.ar    
   5 N5             1.2068     3.3778     0.0082 N.ar    
   6 C6             2.3634     4.0326     0.0007 C.ar    
   7 C7             3.5624     3.3026    -0.0142 C.ar    
   8 N8             4.6390     1.1307    -0.0363 N.pl3   
   9 C9             4.0900     5.4128    -0.0078 C.2     
  10 N10            4.5807     4.2014    -0.0188 N.2     
  11 C11            0.0021    -0.0041     0.0020 C.3     
  12 C12           -1.4333    -0.5336     0.0129 C.3     
  13 C13           -1.4176    -2.0595    -0.1213 C.3     
  14 C14           -2.8519    -2.5868    -0.0304 C.3     
  15 O15           -3.4323    -2.1735     1.2084 O.3     
  16 C16           -3.5168    -0.7561     1.3691 C.3     
  17 C17           -2.1091    -0.1553     1.3344 C.3     
  18 N18            2.7242     5.3595     0.0044 N.pl3   
  19 C19            1.7987     7.1306     1.4161 C.3     
  20 C20            1.8120     6.5058     0.0185 C.3     
  21 O21            2.2530     7.4774    -0.9321 O.3     
  22 C22            1.4148     8.6316    -1.0183 C.3     
  23 C23            1.3856     9.3418     0.3376 C.3     
  24 C24            0.8899     8.3636     1.4070 C.3     
  25 O25            4.8245     6.5499    -0.0086 O.3     
  26 C26            6.2459     6.4041    -0.0230 C.3     
  27 H27            4.5753     0.1628    -0.0401 H       
  28 H28            5.5091     1.5596    -0.0428 H       
  29 H29            0.5123    -0.3556    -0.8948 H       
  30 H30            0.5293    -0.3651     0.8851 H       
  31 H31           -1.9882    -0.1002    -0.8192 H       
  32 H32           -0.9882    -2.3360    -1.0842 H       
  33 H33           -0.8197    -2.4896     0.6822 H       
  34 H34           -3.4389    -2.1880    -0.8577 H       
  35 H35           -2.8430    -3.6755    -0.0823 H       
  36 H36           -4.1125    -0.3334     0.5600 H       
  37 H37           -3.9867    -0.5260     2.3253 H       
  38 H38           -1.5252    -0.5469     2.1673 H       
  39 H39           -2.1743     0.9300     1.4126 H       
  40 H40            1.4207     6.4047     2.1360 H       
  41 H41            2.8108     7.4261     1.6925 H       
  42 H42            0.8067     6.1736    -0.2407 H       
  43 H43            1.8073     9.3101    -1.7757 H       
  44 H44            0.4043     8.3274    -1.2912 H       
  45 H45            2.3893     9.6820     0.5923 H       
  46 H46            0.7121    10.1973     0.2862 H       
  47 H47           -0.1323     8.0614     1.1791 H       
  48 H48            0.9197     8.8457     2.3841 H       
  49 H49            6.5634     5.8509     0.8610 H       
  50 H50            6.5464     5.8608    -0.9189 H       
  51 H51            6.7123     7.3893    -0.0220 H       
@<TRIPOS>BOND
   1    1   11 1
   2    1    4 1
   3    2    3 ar
   4    2    4 ar
   5    3    8 1
   6    3    7 ar
   7    4    5 ar
   8    5    6 ar
   9    6    7 ar
  10    6   18 1
  11    7   10 1
  12    8   27 1
  13    8   28 1
  14    9   10 2
  15    9   18 1
  16    9   25 1
  17   11   12 1
  18   11   29 1
  19   11   30 1
  20   12   13 1
  21   12   17 1
  22   12   31 1
  23   13   14 1
  24   13   32 1
  25   13   33 1
  26   14   15 1
  27   14   34 1
  28   14   35 1
  29   15   16 1
  30   16   17 1
  31   16   36 1
  32   16   37 1
  33   17   38 1
  34   17   39 1
  35   18   20 1
  36   19   20 1
  37   19   24 1
  38   19   40 1
  39   19   41 1
  40   20   21 1
  41   20   42 1
  42   21   22 1
  43   22   23 1
  44   22   43 1
  45   22   44 1
  46   23   24 1
  47   23   45 1
  48   23   46 1
  49   24   47 1
  50   24   48 1
  51   25   26 1
  52   26   49 1
  53   26   50 1
  54   26   51 1

#	End of record

