#	Name: ASD01881556
#	Creating user name:	WinNT
#	Creation time:	15. 06. 2019 19:42

#	Modifying user name:	WinNT
#	Modification time:	15. 06. 2019 19:42

#	Program:	/corina/corina34_cracker 3.40 0067  02.08.2006

@<TRIPOS>MOLECULE
ASD01881556
  30   31    0    0    0
SMALL
NO_CHARGES


@<TRIPOS>ATOM
   1 N1            -0.0154     1.2839     0.0091 N.pl3   
   2 N2             0.0021    -0.0041     0.0020 N.2     
   3 N3             1.2033    -0.4649    -0.0119 N.2     
   4 C4             2.0741     0.5645    -0.0147 C.ar    
   5 C5             1.2843     1.7298    -0.0009 C.ar    
   6 C6             3.4670     0.6759    -0.0271 C.ar    
   7 C7             4.0484     1.9285    -0.0255 C.ar    
   8 C8             3.2560     3.0739    -0.0118 C.ar    
   9 C9             1.8924     2.9784    -0.0004 C.ar    
  10 C10           -1.2133     2.1272     0.0196 C.3     
  11 C11           -1.6228     2.4135     1.4657 C.3     
  12 C12           -2.8739     3.2942     1.4767 C.3     
  13 C13           -3.2834     3.5804     2.9229 C.3     
  14 F14           -2.2411     4.2427     3.5803 F       
  15 F15           -4.4273     4.3857     2.9329 F       
  16 F16           -3.5562     2.3746     3.5777 F       
  17 O17            5.4033     2.0444    -0.0370 O.3     
  18 C18            5.9411     3.3683    -0.0346 C.3     
  19 Br19           4.5472    -0.8761    -0.0451 Br      
  20 H20            3.7236     4.0474    -0.0103 H       
  21 H21            1.2882     3.8735     0.0099 H       
  22 H22           -1.0007     3.0667    -0.4906 H       
  23 H23           -2.0254     1.6113    -0.4926 H       
  24 H24           -1.8354     1.4740     1.9759 H       
  25 H25           -0.8107     2.9295     1.9780 H       
  26 H26           -2.6613     4.2337     0.9666 H       
  27 H27           -3.6859     2.7782     0.9645 H       
  28 H28            5.5939     3.9031    -0.9187 H       
  29 H29            5.6098     3.8935     0.8612 H       
  30 H30            7.0299     3.3182    -0.0447 H       
@<TRIPOS>BOND
   1    1    2 1
   2    1    5 1
   3    1   10 1
   4    2    3 2
   5    3    4 1
   6    4    5 ar
   7    4    6 ar
   8    5    9 ar
   9    6    7 ar
  10    6   19 1
  11    7    8 ar
  12    7   17 1
  13    8    9 ar
  14    8   20 1
  15    9   21 1
  16   10   11 1
  17   10   22 1
  18   10   23 1
  19   11   12 1
  20   11   24 1
  21   11   25 1
  22   12   13 1
  23   12   26 1
  24   12   27 1
  25   13   14 1
  26   13   15 1
  27   13   16 1
  28   17   18 1
  29   18   28 1
  30   18   29 1
  31   18   30 1

#	End of record

