#	Name: ASD04430052
#	Creating user name:	WinNT
#	Creation time:	15. 06. 2019 20:49

#	Modifying user name:	WinNT
#	Modification time:	15. 06. 2019 20:49

#	Program:	/corina/corina34_cracker 3.40 0067  02.08.2006

@<TRIPOS>MOLECULE
ASD04430052
  44   47    0    0    0
SMALL
NO_CHARGES


@<TRIPOS>ATOM
   1 N1             0.5039     1.7719    -0.5615 N.am    
   2 C2             0.3765     0.4301    -0.4053 C.2     
   3 N3             1.3954    -0.3755    -0.3317 N.2     
   4 C4             2.6585     0.0709    -0.4066 C.2     
   5 C5             2.8903     1.4461    -0.5691 C.2     
   6 C6             1.7316     2.3353    -0.6492 C.2     
   7 N7             3.8810    -0.5260    -0.3613 N.pl3   
   8 N8             4.8596     0.4672    -0.4940 N.2     
   9 C9             4.2846     1.6322    -0.6170 C.2     
  10 O10            1.8665     3.5379    -0.7900 O.2     
  11 C11           -1.0095    -0.1541    -0.3122 C.3     
  12 C12           -0.9130    -1.6713    -0.1400 C.3     
  13 C13            4.1193    -1.8976    -0.2081 C.ar    
  14 C14            3.4177    -2.8159    -0.9778 C.ar    
  15 C15            3.6555    -4.1679    -0.8248 C.ar    
  16 C16            4.5906    -4.6073     0.0940 C.ar    
  17 C17            5.2911    -3.6951     0.8622 C.ar    
  18 C18            5.0622    -2.3419     0.7099 C.ar    
  19 C19           -0.3635    -2.0237     1.2646 C.3     
  20 C20            5.8259    -1.3487     1.5474 C.3     
  21 C21           -2.3178    -2.3083    -0.1673 C.3     
  22 C22           -2.3043    -3.4471     0.8673 C.3     
  23 C23           -0.8917    -3.4626     1.4872 C.3     
  24 O24           -3.3031    -1.3360     0.1877 O.3     
  25 H25           -0.2882     2.3293    -0.6146 H       
  26 H26            4.7922     2.5781    -0.7357 H       
  27 H27           -1.5285     0.2764     0.5442 H       
  28 H28           -1.5618     0.0737    -1.2239 H       
  29 H29           -0.2831    -2.1033    -0.9177 H       
  30 H30            2.6866    -2.4734    -1.6952 H       
  31 H31            3.1100    -4.8827    -1.4232 H       
  32 H32            4.7742    -5.6650     0.2123 H       
  33 H33            6.0207    -4.0414     1.5793 H       
  34 H34            0.7264    -2.0074     1.2682 H       
  35 H35           -0.7635    -1.3445     2.0174 H       
  36 H36            6.6921    -0.9930     0.9895 H       
  37 H37            5.1793    -0.5056     1.7909 H       
  38 H38            6.1586    -1.8291     2.4675 H       
  39 H39           -2.5274    -2.7077    -1.1596 H       
  40 H40           -3.0492    -3.2583     1.6403 H       
  41 H41           -2.5073    -4.3993     0.3772 H       
  42 H42           -0.2577    -4.1854     0.9739 H       
  43 H43           -0.9449    -3.6889     2.5522 H       
  44 H44           -4.2084    -1.6758     0.1888 H       
@<TRIPOS>BOND
   1    1    2 1
   2    1    6 am
   3    1   25 1
   4    2    3 2
   5    2   11 1
   6    3    4 1
   7    4    5 2
   8    4    7 1
   9    5    6 1
  10    5    9 1
  11    6   10 2
  12    7    8 1
  13    7   13 1
  14    8    9 2
  15    9   26 1
  16   11   12 1
  17   11   27 1
  18   11   28 1
  19   12   21 1
  20   12   19 1
  21   12   29 1
  22   13   14 ar
  23   13   18 ar
  24   14   15 ar
  25   14   30 1
  26   15   16 ar
  27   15   31 1
  28   16   17 ar
  29   16   32 1
  30   17   18 ar
  31   17   33 1
  32   18   20 1
  33   19   23 1
  34   19   34 1
  35   19   35 1
  36   20   36 1
  37   20   37 1
  38   20   38 1
  39   21   22 1
  40   21   24 1
  41   21   39 1
  42   22   23 1
  43   22   40 1
  44   22   41 1
  45   23   42 1
  46   23   43 1
  47   24   44 1

#	End of record

