#	Name: ASD07930340
#	Creating user name:	WinNT
#	Creation time:	15. 06. 2019 21:12

#	Modifying user name:	WinNT
#	Modification time:	15. 06. 2019 21:12

#	Program:	/corina/corina34_cracker 3.40 0067  02.08.2006

@<TRIPOS>MOLECULE
ASD07930340
  43   46    0    0    0
SMALL
NO_CHARGES


@<TRIPOS>ATOM
   1 C1            -0.0170     1.3992     0.0097 C.2     
   2 C2             0.0021    -0.0041     0.0020 C.2     
   3 C3             1.1979    -0.6649    -0.0129 C.2     
   4 C4             2.3869     0.0685    -0.0203 C.2     
   5 C5             2.3398     1.4455    -0.0125 C.2     
   6 N6             1.1362     2.0941     0.0025 N.am    
   7 O7            -1.0838     1.9923     0.0180 O.2     
   8 C8             3.5947     2.2243    -0.0198 C.ar    
   9 C9             3.5533     3.6205    -0.0119 C.ar    
  10 C10            4.7277     4.3422    -0.0188 C.ar    
  11 C11            5.9484     3.6849    -0.0340 C.ar    
  12 C12            5.9954     2.2996    -0.0423 C.ar    
  13 C13            4.8270     1.5675    -0.0288 C.ar    
  14 F14            7.0963     4.3973    -0.0411 F       
  15 S15            3.4582     7.7519     2.2400 S.3     
  16 C16            2.6973     7.0745     0.8035 C.2     
  17 N17            3.3183     6.3134    -0.0118 N.2     
  18 C18            4.6847     5.8486    -0.0103 C.3     
  19 C19            5.5537     6.4221     1.1178 C.3     
  20 C20            4.8067     6.5569     2.4299 C.3     
  21 O21            6.1321     7.5731    -0.8609 O.3     
  22 C22            5.3857     6.4204    -1.2706 C.3     
  23 C23            5.9532     7.7986     0.5489 C.3     
  24 C24            7.2608     8.2781     1.1822 C.3     
  25 N25            1.3797     7.3779     0.5496 N.pl3   
  26 H26           -0.9243    -0.5591     0.0082 H       
  27 H27            1.2236    -1.7445    -0.0186 H       
  28 H28            3.3387    -0.4417    -0.0318 H       
  29 H29            1.1129     3.0638     0.0075 H       
  30 H30            2.6030     4.1335    -0.0007 H       
  31 H31            6.9489     1.7928    -0.0549 H       
  32 H32            4.8648     0.4882    -0.0305 H       
  33 H33            6.4380     5.8002     1.2573 H       
  34 H34            5.4918     6.9026     3.2040 H       
  35 H35            4.3960     5.5883     2.7151 H       
  36 H36            6.0592     5.6733    -1.6906 H       
  37 H37            4.6393     6.7067    -2.0116 H       
  38 H38            5.1587     8.5251     0.7195 H       
  39 H39            8.0532     7.5613     0.9666 H       
  40 H40            7.5289     9.2509     0.7700 H       
  41 H41            7.1320     8.3637     2.2612 H       
  42 H42            0.8892     7.9543     1.1562 H       
  43 H43            0.9413     7.0154    -0.2360 H       
@<TRIPOS>BOND
   1    1    2 1
   2    1    6 am
   3    1    7 2
   4    2    3 2
   5    2   26 1
   6    3    4 1
   7    3   27 1
   8    4    5 2
   9    4   28 1
  10    5    6 1
  11    5    8 1
  12    6   29 1
  13    8    9 ar
  14    8   13 ar
  15    9   10 ar
  16    9   30 1
  17   10   11 ar
  18   10   18 1
  19   11   12 ar
  20   11   14 1
  21   12   13 ar
  22   12   31 1
  23   13   32 1
  24   15   16 1
  25   15   20 1
  26   16   17 2
  27   16   25 1
  28   17   18 1
  29   18   22 1
  30   18   19 1
  31   19   20 1
  32   19   23 1
  33   19   33 1
  34   20   34 1
  35   20   35 1
  36   21   22 1
  37   21   23 1
  38   22   36 1
  39   22   37 1
  40   23   24 1
  41   23   38 1
  42   24   39 1
  43   24   40 1
  44   24   41 1
  45   25   42 1
  46   25   43 1

#	End of record

