#	Name: ASD01890375
#	Creating user name:	WinNT
#	Creation time:	15. 06. 2019 19:50

#	Modifying user name:	WinNT
#	Modification time:	15. 06. 2019 19:50

#	Program:	/corina/corina34_cracker 3.40 0067  02.08.2006

@<TRIPOS>MOLECULE
ASD01890375
  29   29    0    0    0
SMALL
NO_CHARGES


@<TRIPOS>ATOM
   1 C1            -0.0184     1.5028     0.0103 C.2     
   2 C2             0.0021    -0.0041     0.0020 C.3     
   3 C3             1.4513    -0.4944    -0.0145 C.3     
   4 O4             1.0197     2.1211     0.0037 O.2     
   5 O5            -1.1898     2.1580     0.0194 O.3     
   6 N6             1.4712    -1.9592    -0.0225 N.pl3   
   7 C7             2.6907    -2.6414    -0.0378 C.ar    
   8 C8             2.7110    -4.0302    -0.0455 C.ar    
   9 C9             3.9177    -4.7018    -0.0606 C.ar    
  10 C10            5.1058    -3.9923    -0.0680 C.ar    
  11 C11            5.0885    -2.6087    -0.0600 C.ar    
  12 C12            3.8847    -1.9319    -0.0511 C.ar    
  13 Cl13           6.6208    -4.8398    -0.0870 Cl      
  14 C14           -1.1335     3.6089     0.0270 C.3     
  15 C15           -2.5551     4.1744     0.0369 C.3     
  16 H16           -0.4983    -0.3791     0.8948 H       
  17 H17           -0.5153    -0.3696    -0.8850 H       
  18 H18            1.9516    -0.1193    -0.9073 H       
  19 H19            1.9686    -0.1289     0.8726 H       
  20 H20            0.6378    -2.4556    -0.0172 H       
  21 H21            1.7840    -4.5844    -0.0393 H       
  22 H22            3.9341    -5.7816    -0.0661 H       
  23 H23            6.0173    -2.0575    -0.0651 H       
  24 H24            3.8717    -0.8519    -0.0501 H       
  25 H25           -0.6017     3.9472     0.9164 H       
  26 H26           -0.6102     3.9569    -0.8636 H       
  27 H27           -2.5128     5.2636     0.0426 H       
  28 H28           -3.0869     3.8361    -0.8525 H       
  29 H29           -3.0784     3.8265     0.9275 H       
@<TRIPOS>BOND
   1    1    2 1
   2    1    4 2
   3    1    5 1
   4    2    3 1
   5    2   16 1
   6    2   17 1
   7    3    6 1
   8    3   18 1
   9    3   19 1
  10    5   14 1
  11    6    7 1
  12    6   20 1
  13    7    8 ar
  14    7   12 ar
  15    8    9 ar
  16    8   21 1
  17    9   10 ar
  18    9   22 1
  19   10   11 ar
  20   10   13 1
  21   11   12 ar
  22   11   23 1
  23   12   24 1
  24   14   15 1
  25   14   25 1
  26   14   26 1
  27   15   27 1
  28   15   28 1
  29   15   29 1

#	End of record

