#	Name: ASD01028693
#	Creating user name:	WinNT
#	Creation time:	15. 06. 2019 18:57

#	Modifying user name:	WinNT
#	Modification time:	15. 06. 2019 18:57

#	Program:	/corina/corina34_cracker 3.40 0067  02.08.2006

@<TRIPOS>MOLECULE
ASD01028693
  34   36    0    0    0
SMALL
NO_CHARGES


@<TRIPOS>ATOM
   1 C1            -0.0184     1.5028     0.0103 C.2     
   2 C2             0.0021    -0.0041     0.0020 C.3     
   3 C3            -0.0048    -0.5063    -1.4432 C.3     
   4 O4             1.0235     2.1234     0.0037 O.2     
   5 N5             4.6698    -1.8050     2.5647 N.ar    
   6 C6             4.6040    -2.5662     3.6298 C.ar    
   7 C7             3.3839    -2.9632     4.1732 C.ar    
   8 C8             2.2155    -2.5573     3.5941 C.ar    
   9 C9             2.2900    -1.7395     2.4506 C.ar    
  10 C10            1.1319    -1.2834     1.8012 C.ar    
  11 C11            1.2460    -0.4934     0.6980 C.ar    
  12 C12            2.4974    -0.1320     0.2039 C.ar    
  13 C13            3.6406    -0.5566     0.8083 C.ar    
  14 C14            3.5640    -1.3732     1.9498 C.ar    
  15 C15           -1.3348     3.6220     0.0281 C.ar    
  16 C16           -1.3010     2.2202     0.0203 C.ar    
  17 C17           -2.5135     1.5152     0.0217 C.ar    
  18 C18           -3.6928     2.2390     0.0308 C.ar    
  19 C19           -3.6409     3.6225     0.0381 C.ar    
  20 N20           -2.4873     4.2630     0.0366 N.ar    
  21 F21           -0.1785     4.3208     0.0325 F       
  22 Br22          -5.3601     1.3467     0.0326 Br      
  23 H23           -0.8780    -0.3822     0.5223 H       
  24 H24            0.0100    -1.5962    -1.4492 H       
  25 H25           -0.9045    -0.1523    -1.9466 H       
  26 H26            0.8752    -0.1281    -1.9634 H       
  27 H27            5.5199    -2.8948     4.0984 H       
  28 H28            3.3622    -3.5915     5.0514 H       
  29 H29            1.2610    -2.8558     4.0017 H       
  30 H30            0.1562    -1.5573     2.1747 H       
  31 H31            2.5615     0.4950    -0.6732 H       
  32 H32            4.6028    -0.2675     0.4121 H       
  33 H33           -2.5264     0.4353     0.0156 H       
  34 H34           -4.5612     4.1877     0.0449 H       
@<TRIPOS>BOND
   1    1    2 1
   2    1    4 2
   3    1   16 1
   4    2    3 1
   5    2   11 1
   6    2   23 1
   7    3   24 1
   8    3   25 1
   9    3   26 1
  10    5    6 ar
  11    5   14 ar
  12    6    7 ar
  13    6   27 1
  14    7    8 ar
  15    7   28 1
  16    8    9 ar
  17    8   29 1
  18    9   10 ar
  19    9   14 ar
  20   10   11 ar
  21   10   30 1
  22   11   12 ar
  23   12   13 ar
  24   12   31 1
  25   13   14 ar
  26   13   32 1
  27   15   16 ar
  28   15   20 ar
  29   15   21 1
  30   16   17 ar
  31   17   18 ar
  32   17   33 1
  33   18   19 ar
  34   18   22 1
  35   19   20 ar
  36   19   34 1

#	End of record

