#	Name: ASD01670036
#	Creating user name:	WinNT
#	Creation time:	15. 06. 2019 19:22

#	Modifying user name:	WinNT
#	Modification time:	15. 06. 2019 19:22

#	Program:	/corina/corina34_cracker 3.40 0067  02.08.2006

@<TRIPOS>MOLECULE
ASD01670036
  53   56    0    0    0
SMALL
NO_CHARGES


@<TRIPOS>ATOM
   1 O1             0.0021    -0.0041     0.0020 O.2     
   2 C2            -0.0144     1.2109     0.0087 C.2     
   3 O3             1.1433     1.9004     0.0013 O.3     
   4 C4            -1.3009     1.9305     0.0187 C.ar    
   5 C5            -1.9083     2.2669     1.2324 C.ar    
   6 C6            -3.1106     2.9395     1.2373 C.ar    
   7 C7            -3.7242     3.2854     0.0447 C.ar    
   8 C8            -3.1363     2.9593    -1.1659 C.ar    
   9 O9            -3.5323     3.1832    -2.4533 O.3     
  10 C10           -2.7532     2.2776    -3.2571 C.3     
  11 O11           -1.5552     2.0786    -2.4835 O.3     
  12 C12           -1.9178     2.2856    -1.1871 C.ar    
  13 C13           -1.2482     1.8935     2.5347 C.3     
  14 C14           -0.2280     2.9681     2.9159 C.3     
  15 C15           -0.9306     4.2716     3.2296 C.ar    
  16 C16           -1.0074     4.4432     4.5989 C.ar    
  17 C17           -1.6144     5.5743     5.1190 C.ar    
  18 C18           -2.1423     6.5305     4.2739 C.ar    
  19 C19           -2.0656     6.3589     2.9043 C.ar    
  20 C20           -1.4607     5.2317     2.3838 C.ar    
  21 C21           -0.3620     3.2666     5.2991 C.3     
  22 C22            0.4995     2.5773     4.2198 C.3     
  23 N23            0.4974     1.1237     4.4018 N.am    
  24 C24            1.4563     0.5361     5.1446 C.2     
  25 O25            2.3209     1.2108     5.6624 O.2     
  26 C26            1.4541    -0.9592     5.3318 C.3     
  27 C27            2.6396    -1.3650     6.2097 C.3     
  28 C28            2.6374    -2.8832     6.3998 C.3     
  29 N29            3.7756    -3.2728     7.2427 N.3     
  30 H30            1.9613     1.3849    -0.0092 H       
  31 H31           -3.5775     3.1981     2.1762 H       
  32 H32           -4.6669     3.8123     0.0591 H       
  33 H33           -3.2822     1.3344    -3.3935 H       
  34 H34           -2.5163     2.7280    -4.2210 H       
  35 H35           -2.0041     1.8166     3.3162 H       
  36 H36           -0.7417     0.9347     2.4235 H       
  37 H37            0.4902     3.1103     2.1083 H       
  38 H38           -1.6746     5.7091     6.1888 H       
  39 H39           -2.6150     7.4114     4.6827 H       
  40 H40           -2.4779     7.1057     2.2420 H       
  41 H41           -1.4008     5.0985     1.3137 H       
  42 H42            0.2659     3.6130     6.1200 H       
  43 H43           -1.1249     2.5814     5.6686 H       
  44 H44            1.5169     2.9684     4.2280 H       
  45 H45           -0.1941     0.5840     3.9876 H       
  46 H46            0.5246    -1.2638     5.8129 H       
  47 H47            1.5374    -1.4471     4.3606 H       
  48 H48            3.5690    -1.0605     5.7286 H       
  49 H49            2.5563    -0.8772     7.1809 H       
  50 H50            1.7079    -3.1878     6.8809 H       
  51 H51            2.7207    -3.3711     5.4286 H       
  52 H52            3.7562    -2.7839     8.1251 H       
  53 H53            3.7963    -4.2718     7.3832 H       
@<TRIPOS>BOND
   1    1    2 2
   2    2    3 1
   3    2    4 1
   4    3   30 1
   5    4    5 ar
   6    4   12 ar
   7    5    6 ar
   8    5   13 1
   9    6    7 ar
  10    6   31 1
  11    7    8 ar
  12    7   32 1
  13    8    9 1
  14    8   12 ar
  15    9   10 1
  16   10   11 1
  17   10   33 1
  18   10   34 1
  19   11   12 1
  20   13   14 1
  21   13   35 1
  22   13   36 1
  23   14   15 1
  24   14   22 1
  25   14   37 1
  26   15   16 ar
  27   15   20 ar
  28   16   17 ar
  29   16   21 1
  30   17   18 ar
  31   17   38 1
  32   18   19 ar
  33   18   39 1
  34   19   20 ar
  35   19   40 1
  36   20   41 1
  37   21   22 1
  38   21   42 1
  39   21   43 1
  40   22   23 1
  41   22   44 1
  42   23   24 am
  43   23   45 1
  44   24   25 2
  45   24   26 1
  46   26   27 1
  47   26   46 1
  48   26   47 1
  49   27   28 1
  50   27   48 1
  51   27   49 1
  52   28   29 1
  53   28   50 1
  54   28   51 1
  55   29   52 1
  56   29   53 1

#	End of record

