#	Name: ASD01940359
#	Creating user name:	WinNT
#	Creation time:	15. 06. 2019 20:12

#	Modifying user name:	WinNT
#	Modification time:	15. 06. 2019 20:12

#	Program:	/corina/corina34_cracker 3.40 0067  02.08.2006

@<TRIPOS>MOLECULE
ASD01940359
  35   36    0    0    0
SMALL
NO_CHARGES


@<TRIPOS>ATOM
   1 C1             0.3981     1.6518    -0.1640 C.3     
   2 C2             0.5043     0.1272    -0.2361 C.3     
   3 F3             1.1066    -0.3540     0.9313 F       
   4 F4            -0.7754    -0.4240    -0.3619 F       
   5 F5             1.2788    -0.2344    -1.3436 F       
   6 S6             2.0574     2.3665    -0.0009 S.o2    
   7 O7             2.6149     2.0482     1.2668 O.2     
   8 O8             2.8014     2.1777    -1.1967 O.2     
   9 N9             1.7987     4.0008     0.0654 N.am    
  10 C10            1.0310     4.5471     1.1027 C.ar    
  11 C11            0.2006     5.6398     0.8563 C.ar    
  12 C12           -0.5579     6.1767     1.8874 C.ar    
  13 C13           -0.4878     5.6256     3.1574 C.ar    
  14 C14            0.3376     4.5414     3.3995 C.ar    
  15 C15            1.0914     3.9987     2.3746 C.ar    
  16 N16            0.1324     6.1949    -0.4290 N.pl3   
  17 C17           -0.3752     7.4857    -0.6071 C.ar    
  18 C18            0.3786     8.5905    -0.2231 C.ar    
  19 C19           -0.1267     9.8648    -0.4014 C.ar    
  20 C20           -1.3803    10.0411    -0.9604 C.ar    
  21 C21           -2.1312     8.9444    -1.3422 C.ar    
  22 C22           -1.6298     7.6680    -1.1727 C.ar    
  23 I23           -2.1426    11.9741    -1.2281 I       
  24 F24            1.6020     8.4181     0.3234 F       
  25 F25           -1.2261     6.1482     4.1609 F       
  26 F26           -1.3636     7.2356     1.6535 F       
  27 H27           -0.0712     2.0268    -1.0736 H       
  28 H28           -0.2053     1.9336     0.6989 H       
  29 H29            2.1785     4.5799    -0.6137 H       
  30 H30            0.3901     4.1152     4.3905 H       
  31 H31            1.7307     3.1495     2.5662 H       
  32 H32            0.4373     5.6836    -1.1949 H       
  33 H33            0.4571    10.7233    -0.1039 H       
  34 H34           -3.1094     9.0859    -1.7775 H       
  35 H35           -2.2155     6.8127    -1.4755 H       
@<TRIPOS>BOND
   1    1    2 1
   2    1    6 1
   3    1   27 1
   4    1   28 1
   5    2    3 1
   6    2    4 1
   7    2    5 1
   8    6    7 2
   9    6    8 2
  10    6    9 am
  11    9   10 1
  12    9   29 1
  13   10   11 ar
  14   10   15 ar
  15   11   12 ar
  16   11   16 1
  17   12   13 ar
  18   12   26 1
  19   13   14 ar
  20   13   25 1
  21   14   15 ar
  22   14   30 1
  23   15   31 1
  24   16   17 1
  25   16   32 1
  26   17   18 ar
  27   17   22 ar
  28   18   19 ar
  29   18   24 1
  30   19   20 ar
  31   19   33 1
  32   20   21 ar
  33   20   23 1
  34   21   22 ar
  35   21   34 1
  36   22   35 1

#	End of record

