#	Name: ASD01884759
#	Creating user name:	WinNT
#	Creation time:	15. 06. 2019 19:48

#	Modifying user name:	WinNT
#	Modification time:	15. 06. 2019 19:48

#	Program:	/corina/corina34_cracker 3.40 0067  02.08.2006

@<TRIPOS>MOLECULE
ASD01884759
  37   38    0    0    0
SMALL
NO_CHARGES


@<TRIPOS>ATOM
   1 C1            -0.0157     1.3048     0.0092 C.2     
   2 N2             0.0021    -0.0041     0.0020 N.2     
   3 C3             1.1620    -0.6711    -0.0126 C.2     
   4 C4             2.3605     0.0078    -0.0204 C.2     
   5 N5             2.3700     1.3600    -0.0132 N.am    
   6 C6             1.1981     2.0294     0.0015 C.2     
   7 O7             1.1865     3.2491     0.0078 O.2     
   8 C8             3.6396     2.0910    -0.0209 C.3     
   9 C9             1.1571    -2.1544    -0.0200 C.ar    
  10 C10            4.0684     2.3532    -1.4660 C.3     
  11 C11           -0.0516    -2.8488    -0.0118 C.ar    
  12 C12           -0.0528    -4.2279    -0.0187 C.ar    
  13 C13            1.1479    -4.9245    -0.0334 C.ar    
  14 C14            2.3532    -4.2358    -0.0416 C.ar    
  15 C15            2.3610    -2.8566    -0.0410 C.ar    
  16 C16            3.0591     3.2879    -2.1358 C.3     
  17 O17            1.1434    -6.2834    -0.0392 O.3     
  18 C18            2.4145    -6.9363    -0.0544 C.3     
  19 C19            5.4525     3.0051    -1.4770 C.3     
  20 H20           -0.9585     1.8316     0.0165 H       
  21 H21            3.2917    -0.5393    -0.0318 H       
  22 H22            3.5151     3.0408     0.4992 H       
  23 H23            4.4032     1.4983     0.4828 H       
  24 H24            4.1068     1.4097    -2.0105 H       
  25 H25           -0.9860    -2.3075     0.0003 H       
  26 H26           -0.9889    -4.7665    -0.0123 H       
  27 H27            3.2857    -4.7805    -0.0530 H       
  28 H28            3.2990    -2.3214    -0.0478 H       
  29 H29            2.0730     2.8234    -2.1280 H       
  30 H30            3.0206     4.2313    -1.5914 H       
  31 H31            3.3645     3.4747    -3.1653 H       
  32 H32            2.9638    -6.6413    -0.9485 H       
  33 H33            2.9810    -6.6491     0.8314 H       
  34 H34            2.2681    -8.0164    -0.0576 H       
  35 H35            6.1715     2.3393    -0.9998 H       
  36 H36            5.7579     3.1919    -2.5065 H       
  37 H37            5.4141     3.9486    -0.9325 H       
@<TRIPOS>BOND
   1    1    2 2
   2    1    6 1
   3    1   20 1
   4    2    3 1
   5    3    4 2
   6    3    9 1
   7    4    5 1
   8    4   21 1
   9    5    6 am
  10    5    8 1
  11    6    7 2
  12    8   10 1
  13    8   22 1
  14    8   23 1
  15    9   11 ar
  16    9   15 ar
  17   10   19 1
  18   10   16 1
  19   10   24 1
  20   11   12 ar
  21   11   25 1
  22   12   13 ar
  23   12   26 1
  24   13   14 ar
  25   13   17 1
  26   14   15 ar
  27   14   27 1
  28   15   28 1
  29   16   29 1
  30   16   30 1
  31   16   31 1
  32   17   18 1
  33   18   32 1
  34   18   33 1
  35   18   34 1
  36   19   35 1
  37   19   36 1
  38   19   37 1

#	End of record

