#	Name: ASD03091717
#	Creating user name:	WinNT
#	Creation time:	15. 06. 2019 20:31

#	Modifying user name:	WinNT
#	Modification time:	15. 06. 2019 20:31

#	Program:	/corina/corina34_cracker 3.40 0067  02.08.2006

@<TRIPOS>MOLECULE
ASD03091717
  37   39    0    0    0
SMALL
NO_CHARGES


@<TRIPOS>ATOM
   1 C1            -0.0188     1.5354     0.0105 C.3     
   2 C2             0.0021    -0.0041     0.0020 C.3     
   3 N3             0.0279    -0.4602     1.4021 N.3     
   4 C4             0.0781     0.7235     2.2834 C.3     
   5 C5            -0.5170     1.8802     1.4507 C.3     
   6 C6             0.2659     3.1734     1.7649 C.3     
   7 N7             1.5706     3.0168     1.1019 N.am    
   8 C8             1.4290     2.0576    -0.0005 C.3     
   9 C9             2.7084     3.6502     1.4495 C.2     
  10 O10            2.7100     4.4292     2.3855 O.2     
  11 C11            3.9029     3.4095     0.7256 C.2     
  12 C12            5.1350     3.9867     0.9713 C.2     
  13 O13            4.0428     2.5702    -0.3249 O.3     
  14 C14            5.3131     2.5983    -0.7565 C.2     
  15 C15            6.0226     3.4556     0.0099 C.2     
  16 O16            7.3459     3.7517    -0.1202 O.3     
  17 C17            8.0582     3.0925    -1.1691 C.3     
  18 O18            5.4324     4.8858     1.9435 O.3     
  19 C19            5.8629     4.3624     3.2015 C.3     
  20 H20           -0.6324     1.9593    -0.7844 H       
  21 H21           -0.8919    -0.3828    -0.4934 H       
  22 H22            0.8918    -0.3585    -0.5184 H       
  23 H23           -0.7764    -1.0325     1.6108 H       
  24 H24           -0.5221     0.5543     3.1774 H       
  25 H25            1.1093     0.9470     2.5570 H       
  26 H26           -1.5995     1.9734     1.5378 H       
  27 H27           -0.2598     4.0393     1.3624 H       
  28 H28            0.4006     3.2803     2.8412 H       
  29 H29            2.1216     1.2279     0.1411 H       
  30 H30            1.6353     2.5530    -0.9493 H       
  31 H31            5.7064     2.0246    -1.5827 H       
  32 H32            7.6062     3.3434    -2.1287 H       
  33 H33            9.0987     3.4171    -1.1616 H       
  34 H34            8.0129     2.0141    -1.0171 H       
  35 H35            5.0802     3.7286     3.6183 H       
  36 H36            6.7695     3.7743     3.0593 H       
  37 H37            6.0673     5.1852     3.8866 H       
@<TRIPOS>BOND
   1    1    2 1
   2    1    8 1
   3    1    5 1
   4    1   20 1
   5    2    3 1
   6    2   21 1
   7    2   22 1
   8    3    4 1
   9    3   23 1
  10    4    5 1
  11    4   24 1
  12    4   25 1
  13    5    6 1
  14    5   26 1
  15    6    7 1
  16    6   27 1
  17    6   28 1
  18    7    8 1
  19    7    9 am
  20    8   29 1
  21    8   30 1
  22    9   10 2
  23    9   11 1
  24   11   12 2
  25   11   13 1
  26   12   18 1
  27   12   15 1
  28   13   14 1
  29   14   15 2
  30   14   31 1
  31   15   16 1
  32   16   17 1
  33   17   32 1
  34   17   33 1
  35   17   34 1
  36   18   19 1
  37   19   35 1
  38   19   36 1
  39   19   37 1

#	End of record

