#	Name: ASD01918184
#	Creating user name:	WinNT
#	Creation time:	15. 06. 2019 20:10

#	Modifying user name:	WinNT
#	Modification time:	15. 06. 2019 20:10

#	Program:	/corina/corina34_cracker 3.40 0067  02.08.2006

@<TRIPOS>MOLECULE
ASD01918184
  34   35    0    0    0
SMALL
NO_CHARGES


@<TRIPOS>ATOM
   1 N1             0.0417     1.3150     0.1307 N.ar    
   2 C2             0.0687    -0.0012     0.1422 C.ar    
   3 C3             1.2701    -0.6878     0.1625 C.ar    
   4 C4             2.4619     0.0236     0.1708 C.ar    
   5 C5             2.4064     1.4060     0.1584 C.ar    
   6 C6             1.1591     2.0344     0.1380 C.ar    
   7 N7             1.0872     3.3999     0.1256 N.2     
   8 N8            -0.0623     3.9852     0.1068 N.2     
   9 C9            -0.1340     5.3468     0.0944 C.ar    
  10 C10           -1.4471     7.3624     0.0678 C.ar    
  11 C11           -1.3800     5.9833     0.0798 C.ar    
  12 C12            1.0384     6.1109     0.1019 C.ar    
  13 C13            0.9642     7.4860     0.0898 C.ar    
  14 C14           -0.2737     8.1183     0.0701 C.ar    
  15 O15           -2.6563     7.9842     0.0536 O.3     
  16 C16           -3.8155     7.1486     0.0521 C.3     
  17 N17           -0.3434     9.5135     0.0583 N.am    
  18 C18            0.6797    10.2351    -0.4405 C.2     
  19 O19            1.6900     9.6774    -0.8137 O.2     
  20 C20            0.5685    11.7351    -0.5346 C.3     
  21 H21           -0.8597    -0.5529     0.1361 H       
  22 H22            1.2802    -1.7677     0.1722 H       
  23 H23            3.4115    -0.4906     0.1869 H       
  24 H24            3.3144     1.9908     0.1646 H       
  25 H25           -2.2872     5.3972     0.0777 H       
  26 H26            2.0014     5.6223     0.1176 H       
  27 H27            1.8697     8.0745     0.0961 H       
  28 H28           -3.8032     6.5118    -0.8325 H       
  29 H29           -3.8163     6.5268     0.9474 H       
  30 H30           -4.7111     7.7697     0.0403 H       
  31 H31           -1.1282     9.9628     0.4091 H       
  32 H32            0.4135    12.1510     0.4610 H       
  33 H33            1.4863    12.1416    -0.9594 H       
  34 H34           -0.2749    11.9975    -1.1733 H       
@<TRIPOS>BOND
   1    1    2 ar
   2    1    6 ar
   3    2    3 ar
   4    2   21 1
   5    3    4 ar
   6    3   22 1
   7    4    5 ar
   8    4   23 1
   9    5    6 ar
  10    5   24 1
  11    6    7 1
  12    7    8 2
  13    8    9 1
  14    9   12 ar
  15    9   11 ar
  16   10   11 ar
  17   10   14 ar
  18   10   15 1
  19   11   25 1
  20   12   13 ar
  21   12   26 1
  22   13   14 ar
  23   13   27 1
  24   14   17 1
  25   15   16 1
  26   16   28 1
  27   16   29 1
  28   16   30 1
  29   17   18 am
  30   17   31 1
  31   18   19 2
  32   18   20 1
  33   20   32 1
  34   20   33 1
  35   20   34 1

#	End of record

