#	Name: ASD00431246
#	Creating user name:	WinNT
#	Creation time:	15. 06. 2019 18:35

#	Modifying user name:	WinNT
#	Modification time:	15. 06. 2019 18:35

#	Program:	/corina/corina34_cracker 3.40 0067  02.08.2006

@<TRIPOS>MOLECULE
ASD00431246
  42   44    0    0    0
SMALL
NO_CHARGES


@<TRIPOS>ATOM
   1 C1             5.1411    -3.0296    -7.2430 C.3     
   2 C2             5.1164    -2.6945    -8.7356 C.3     
   3 S3             5.5682    -0.4658    -5.9266 S.3     
   4 C4             7.2041    -0.2128    -5.3237 C.2     
   5 N5             7.9259    -1.2651    -5.5975 N.2     
   6 C6             7.3275    -2.2490    -6.2315 C.2     
   7 C7             6.0388    -2.0556    -6.5243 C.2     
   8 S8             6.7197     2.4190    -4.2482 S.3     
   9 C9             8.0762     3.1499    -3.5081 C.2     
  10 N10            9.1037     2.3602    -3.5695 N.2     
  11 C11            8.9321     1.1974    -4.1586 C.2     
  12 C12            7.6800     0.9908    -4.6250 C.2     
  13 O13            8.0780     4.3787    -2.9387 O.3     
  14 C14            9.2070     4.7838    -2.2985 C.ar    
  15 C15           10.3743     4.9955    -3.0177 C.ar    
  16 C16           11.5209     5.4075    -2.3674 C.ar    
  17 C17           11.5056     5.6093    -0.9951 C.ar    
  18 C18           10.3386     5.3973    -0.2759 C.ar    
  19 C19            9.1902     4.9912    -0.9269 C.ar    
  20 O20           12.6346     6.0145    -0.3549 O.3     
  21 C21           13.8323     6.0813    -1.1315 C.3     
  22 C22           14.0100     7.5008    -1.6739 C.3     
  23 C23           15.0308     5.7173    -0.2529 C.3     
  24 O24            3.8174    -2.9382    -6.7123 O.3     
  25 H25            5.5191    -4.0425    -7.1042 H       
  26 H26            4.7384    -1.6815    -8.8744 H       
  27 H27            6.1260    -2.7641    -9.1404 H       
  28 H28            4.4671    -3.3989    -9.2555 H       
  29 H29            7.8461    -3.1577    -6.4994 H       
  30 H30            9.7237     0.4699    -4.2618 H       
  31 H31           10.3864     4.8377    -4.0860 H       
  32 H32           12.4297     5.5722    -2.9272 H       
  33 H33           10.3270     5.5538     0.7927 H       
  34 H34            8.2804     4.8308    -0.3676 H       
  35 H35           13.7655     5.3802    -1.9634 H       
  36 H36           14.9236     7.5518    -2.2663 H       
  37 H37           13.1562     7.7601    -2.2999 H       
  38 H38           14.0768     8.2019    -0.8420 H       
  39 H39           14.9043     4.7060     0.1336 H       
  40 H40           15.9444     5.7683    -0.8452 H       
  41 H41           15.0977     6.4184     0.5791 H       
  42 H42            3.1843    -3.5386    -7.1291 H       
@<TRIPOS>BOND
   1    1    2 1
   2    1    7 1
   3    1   24 1
   4    1   25 1
   5    2   26 1
   6    2   27 1
   7    2   28 1
   8    3    4 1
   9    3    7 1
  10    4    5 2
  11    4   12 1
  12    5    6 1
  13    6    7 2
  14    6   29 1
  15    8    9 1
  16    8   12 1
  17    9   10 2
  18    9   13 1
  19   10   11 1
  20   11   12 2
  21   11   30 1
  22   13   14 1
  23   14   15 ar
  24   14   19 ar
  25   15   16 ar
  26   15   31 1
  27   16   17 ar
  28   16   32 1
  29   17   18 ar
  30   17   20 1
  31   18   19 ar
  32   18   33 1
  33   19   34 1
  34   20   21 1
  35   21   22 1
  36   21   23 1
  37   21   35 1
  38   22   36 1
  39   22   37 1
  40   22   38 1
  41   23   39 1
  42   23   40 1
  43   23   41 1
  44   24   42 1

#	End of record

