#	Name: ASD02198592
#	Creating user name:	WinNT
#	Creation time:	15. 06. 2019 20:19

#	Modifying user name:	WinNT
#	Modification time:	15. 06. 2019 20:19

#	Program:	/corina/corina34_cracker 3.40 0067  02.08.2006

@<TRIPOS>MOLECULE
ASD02198592
  48   51    0    0    0
SMALL
NO_CHARGES


@<TRIPOS>ATOM
   1 C1             0.2058     2.1573    -0.3787 C.2     
   2 C2            -0.0043     0.8201    -0.2860 C.2     
   3 N3             1.0334    -0.0375    -0.1599 N.pl3   
   4 N4             2.2578     0.3399    -0.1204 N.2     
   5 C5             2.6014     1.6075    -0.2006 C.2     
   6 C6             1.5428     2.6205    -0.3396 C.2     
   7 C7             0.7568    -1.4058    -0.0676 C.ar    
   8 C8             1.2402    -2.1455     1.0104 C.ar    
   9 C9             0.9623    -3.5006     1.0963 C.ar    
  10 C10            0.2078    -4.1152     0.1151 C.ar    
  11 C11           -0.2724    -3.3819    -0.9551 C.ar    
  12 C12           -0.0048    -2.0299    -1.0463 C.ar    
  13 C13            4.0227     2.0063    -0.1517 C.2     
  14 N14            4.6898     2.7504    -1.0838 N.pl3   
  15 N15            6.0127     2.8947    -0.6474 N.2     
  16 C16            6.1495     2.2703     0.4952 C.2     
  17 C17            4.9241     1.7033     0.8452 C.2     
  18 C18            4.1479     3.2742    -2.2645 C.ar    
  19 C19            3.2908     2.5031    -3.0386 C.ar    
  20 O20            1.8070     3.8110    -0.4186 O.2     
  21 C21            4.4620     4.5677    -2.6603 C.ar    
  22 C22            3.9261     5.0812    -3.8250 C.ar    
  23 C23            3.0774     4.3088    -4.5967 C.ar    
  24 C24            2.7581     3.0224    -4.2022 C.ar    
  25 O25            1.9825    -1.5397     1.9743 O.3     
  26 C26            3.6270    -1.7263     3.7354 C.3     
  27 C27            1.2547    -2.4178     4.1050 C.3     
  28 C28            2.3899    -2.3456     3.0818 C.3     
  29 H29           -0.6200     2.8455    -0.4835 H       
  30 H30           -1.0133     0.4358    -0.3127 H       
  31 H31            1.3358    -4.0765     1.9302 H       
  32 H32           -0.0073    -5.1714     0.1837 H       
  33 H33           -0.8612    -3.8671    -1.7195 H       
  34 H34           -0.3814    -1.4600    -1.8829 H       
  35 H35            7.0597     2.2078     1.0731 H       
  36 H36            4.7201     1.1256     1.7346 H       
  37 H37            3.0414     1.4983    -2.7312 H       
  38 H38            5.1245     5.1715    -2.0579 H       
  39 H39            4.1697     6.0872    -4.1332 H       
  40 H40            2.6596     4.7127    -5.5070 H       
  41 H41            2.0950     2.4217    -4.8070 H       
  42 H42            3.3887    -0.7218     4.0852 H       
  43 H43            3.9378    -2.3411     4.5801 H       
  44 H44            4.4357    -1.6749     3.0064 H       
  45 H45            0.3734    -2.8589     3.6394 H       
  46 H46            1.5655    -3.0325     4.9498 H       
  47 H47            1.0164    -1.4133     4.4548 H       
  48 H48            2.6282    -3.3500     2.7320 H       
@<TRIPOS>BOND
   1    1    2 2
   2    1    6 1
   3    1   29 1
   4    2    3 1
   5    2   30 1
   6    3    4 1
   7    3    7 1
   8    4    5 2
   9    5    6 1
  10    5   13 1
  11    6   20 2
  12    7    8 ar
  13    7   12 ar
  14    8    9 ar
  15    8   25 1
  16    9   10 ar
  17    9   31 1
  18   10   11 ar
  19   10   32 1
  20   11   12 ar
  21   11   33 1
  22   12   34 1
  23   13   14 1
  24   13   17 2
  25   14   15 1
  26   14   18 1
  27   15   16 2
  28   16   17 1
  29   16   35 1
  30   17   36 1
  31   18   21 ar
  32   18   19 ar
  33   19   24 ar
  34   19   37 1
  35   21   22 ar
  36   21   38 1
  37   22   23 ar
  38   22   39 1
  39   23   24 ar
  40   23   40 1
  41   24   41 1
  42   25   28 1
  43   26   28 1
  44   26   42 1
  45   26   43 1
  46   26   44 1
  47   27   28 1
  48   27   45 1
  49   27   46 1
  50   27   47 1
  51   28   48 1

#	End of record

