#	Name: ASD01150774
#	Creating user name:	WinNT
#	Creation time:	15. 06. 2019 19:05

#	Modifying user name:	WinNT
#	Modification time:	15. 06. 2019 19:05

#	Program:	/corina/corina34_cracker 3.40 0067  02.08.2006

@<TRIPOS>MOLECULE
ASD01150774
  55   58    0    0    0
SMALL
NO_CHARGES


@<TRIPOS>ATOM
   1 C1             0.0493     1.3183     0.1067 C.2     
   2 C2            -0.5043     0.9908    -1.2562 C.3     
   3 F3            -1.6413     0.1876    -1.1169 F       
   4 F4            -0.8480     2.1751    -1.9168 F       
   5 F5             0.4624     0.3056    -1.9999 F       
   6 N6             3.6563     2.0512     0.4840 N.ar    
   7 C7             2.5272     1.4019     0.3745 C.ar    
   8 C8             1.3000     2.0743     0.2277 C.ar    
   9 C9             1.2877     3.4810     0.1979 C.ar    
  10 C10            2.5295     4.1531     0.3192 C.ar    
  11 C11            2.5999     5.5517     0.2981 C.ar    
  12 C12            3.8265     6.1719     0.4183 C.ar    
  13 C13            4.9934     5.4138     0.5605 C.ar    
  14 C14            4.9464     4.0540     0.5833 C.ar    
  15 C15            3.7143     3.3901     0.4633 C.ar    
  16 C16            2.5402    -0.1047     0.4057 C.3     
  17 C17            0.0247     4.2310     0.0452 C.ar    
  18 C18           -0.9525     4.1692     1.0419 C.ar    
  19 C19           -2.1292     4.8717     0.8941 C.ar    
  20 C20           -2.3441     5.6385    -0.2409 C.ar    
  21 C21           -1.3781     5.7032    -1.2335 C.ar    
  22 C22           -0.1952     5.0095    -1.0939 C.ar    
  23 F23           -3.4993     6.3250    -0.3805 F       
  24 N24            3.9036     7.5660     0.3976 N.3     
  25 C25            2.7471     8.1695     1.0848 C.3     
  26 C26            3.3021     9.0755     2.2040 C.3     
  27 C27            4.7463     9.3780     1.7250 C.3     
  28 C28            5.1408     8.0381     1.0550 C.3     
  29 N29            2.5186    10.3139     2.3062 N.3     
  30 C30            1.1359    10.0301     2.7128 C.3     
  31 C31            3.1541    11.2643     3.2286 C.3     
  32 O32           -0.5424     0.9609     1.1037 O.2     
  33 H33            1.7010     6.1401     0.1881 H       
  34 H34            5.9456     5.9149     0.6531 H       
  35 H35            5.8575     3.4846     0.6939 H       
  36 H36            2.5159    -0.4469     1.4404 H       
  37 H37            1.6674    -0.4866    -0.1239 H       
  38 H38            3.4467    -0.4703    -0.0767 H       
  39 H39           -0.7863     3.5719     1.9262 H       
  40 H40           -2.8854     4.8244     1.6638 H       
  41 H41           -1.5511     6.3015    -2.1158 H       
  42 H42            0.5584     5.0642    -1.8656 H       
  43 H43            2.1661     8.7644     0.3801 H       
  44 H44            2.1227     7.3873     1.5163 H       
  45 H45            3.3150     8.5466     3.1571 H       
  46 H46            4.7551    10.1935     1.0019 H       
  47 H47            5.3993     9.5996     2.5691 H       
  48 H48            5.4688     7.3201     1.8067 H       
  49 H49            5.9254     8.2000     0.3159 H       
  50 H50            1.1370     9.5361     3.6845 H       
  51 H51            0.5781    10.9641     2.7807 H       
  52 H52            0.6665     9.3794     1.9750 H       
  53 H53            4.1799    11.4493     2.9100 H       
  54 H54            2.5978    12.2016     3.2248 H       
  55 H55            3.1561    10.8471     4.2357 H       
@<TRIPOS>BOND
   1    1    2 1
   2    1    8 1
   3    1   32 2
   4    2    3 1
   5    2    4 1
   6    2    5 1
   7    6    7 ar
   8    6   15 ar
   9    7    8 ar
  10    7   16 1
  11    8    9 ar
  12    9   10 ar
  13    9   17 1
  14   10   11 ar
  15   10   15 ar
  16   11   12 ar
  17   11   33 1
  18   12   13 ar
  19   12   24 1
  20   13   14 ar
  21   13   34 1
  22   14   15 ar
  23   14   35 1
  24   16   36 1
  25   16   37 1
  26   16   38 1
  27   17   18 ar
  28   17   22 ar
  29   18   19 ar
  30   18   39 1
  31   19   20 ar
  32   19   40 1
  33   20   21 ar
  34   20   23 1
  35   21   22 ar
  36   21   41 1
  37   22   42 1
  38   24   25 1
  39   24   28 1
  40   25   26 1
  41   25   43 1
  42   25   44 1
  43   26   27 1
  44   26   29 1
  45   26   45 1
  46   27   28 1
  47   27   46 1
  48   27   47 1
  49   28   48 1
  50   28   49 1
  51   29   30 1
  52   29   31 1
  53   30   50 1
  54   30   51 1
  55   30   52 1
  56   31   53 1
  57   31   54 1
  58   31   55 1

#	End of record

