#	Name: ASD01917679
#	Creating user name:	WinNT
#	Creation time:	15. 06. 2019 20:09

#	Modifying user name:	WinNT
#	Modification time:	15. 06. 2019 20:09

#	Program:	/corina/corina34_cracker 3.40 0067  02.08.2006

@<TRIPOS>MOLECULE
ASD01917679
  39   42    0    0    0
SMALL
NO_CHARGES


@<TRIPOS>ATOM
   1 C1            -0.0481     2.1259    -0.5994 C.3     
   2 C2            -0.2788     0.6839    -0.9866 C.2     
   3 C3             2.1474     0.0903    -1.1156 C.3     
   4 C4             2.3546     1.6076    -1.1753 C.3     
   5 N5             1.3860     2.2638    -0.2839 N.am    
   6 C6            -1.4552     0.0575    -1.1626 C.2     
   7 C7            -1.1801    -1.2774    -1.5261 C.2     
   8 N8             0.1289    -1.4282    -1.5595 N.2     
   9 N9             0.7155    -0.2063    -1.2185 N.pl3   
  10 C10            1.7964     2.9700     0.7881 C.2     
  11 O11            2.9743     2.9903     1.0879 O.2     
  12 C12            0.8146     3.7195     1.5992 C.ar    
  13 C13            0.8734     3.6706     2.9944 C.ar    
  14 C14           -0.1724     4.4843     0.9751 C.ar    
  15 C15           -1.0856     5.1820     1.7381 C.ar    
  16 C16           -1.0253     5.1259     3.1194 C.ar    
  17 C17           -0.0475     4.3743     3.7456 C.ar    
  18 C18           -2.1868    -2.3269    -1.8189 C.ar    
  19 C19           -1.7671    -3.6091    -2.1672 C.ar    
  20 C20           -2.7178    -4.5777    -2.4370 C.ar    
  21 C21           -4.0592    -4.2320    -2.3496 C.ar    
  22 C22           -4.4050    -2.9406    -1.9984 C.ar    
  23 N23           -3.4793    -2.0384    -1.7416 N.ar    
  24 Cl24           2.1002     2.7276     3.7814 Cl      
  25 H25           -0.3107     2.7806    -1.4303 H       
  26 H26           -0.6472     2.3762     0.2762 H       
  27 H27            2.6772    -0.3822    -1.9428 H       
  28 H28            2.5316    -0.2926    -0.1702 H       
  29 H29            3.3675     1.8496    -0.8534 H       
  30 H30            2.2034     1.9558    -2.1970 H       
  31 H31           -2.4347     0.4972    -1.0466 H       
  32 H32           -0.2207     4.5300    -0.1028 H       
  33 H33           -1.8495     5.7739     1.2560 H       
  34 H34           -1.7428     5.6746     3.7114 H       
  35 H35           -0.0041     4.3376     4.8241 H       
  36 H36           -0.7145    -3.8436    -2.2261 H       
  37 H37           -2.4227    -5.5801    -2.7099 H       
  38 H38           -4.8256    -4.9649    -2.5544 H       
  39 H39           -5.4478    -2.6683    -1.9295 H       
@<TRIPOS>BOND
   1    1    2 1
   2    1    5 1
   3    1   25 1
   4    1   26 1
   5    2    6 2
   6    2    9 1
   7    3    4 1
   8    3    9 1
   9    3   27 1
  10    3   28 1
  11    4    5 1
  12    4   29 1
  13    4   30 1
  14    5   10 am
  15    6    7 1
  16    6   31 1
  17    7    8 2
  18    7   18 1
  19    8    9 1
  20   10   11 2
  21   10   12 1
  22   12   14 ar
  23   12   13 ar
  24   13   17 ar
  25   13   24 1
  26   14   15 ar
  27   14   32 1
  28   15   16 ar
  29   15   33 1
  30   16   17 ar
  31   16   34 1
  32   17   35 1
  33   18   19 ar
  34   18   23 ar
  35   19   20 ar
  36   19   36 1
  37   20   21 ar
  38   20   37 1
  39   21   22 ar
  40   21   38 1
  41   22   23 ar
  42   22   39 1

#	End of record

