#	Name: ASD03430645
#	Creating user name:	WinNT
#	Creation time:	15. 06. 2019 20:41

#	Modifying user name:	WinNT
#	Modification time:	15. 06. 2019 20:41

#	Program:	/corina/corina34_cracker 3.40 0067  02.08.2006

@<TRIPOS>MOLECULE
ASD03430645
  65   70    0    0    0
SMALL
NO_CHARGES


@<TRIPOS>ATOM
   1 N1            -0.0159     1.4933     0.4911 N.am    
   2 C2             0.0407     0.2263     0.9346 C.2     
   3 C3             1.4800    -0.0483     1.3154 C.3     
   4 C4             2.1934     1.2499     1.0149 C.ar    
   5 C5             3.5109     1.6482     1.1415 C.ar    
   6 C6             3.8823     2.9347     0.7764 C.ar    
   7 C7             2.9271     3.8130     0.2862 C.ar    
   8 C8             1.6078     3.4119     0.1607 C.ar    
   9 C9             1.2297     2.1214     0.5254 C.ar    
  10 O10           -0.8868    -0.5511     1.0151 O.2     
  11 O11            3.2878     5.0732    -0.0721 O.3     
  12 C12            4.6646     5.4228     0.0829 C.3     
  13 O13            4.4408     0.7820     1.6230 O.3     
  14 C14            5.7827     1.2622     1.7265 C.3     
  15 O15            1.8694    -1.3133     6.7996 O.3     
  16 C16            1.7641    -0.2312     7.7311 C.3     
  17 C17            0.5692     0.6405     7.3217 C.3     
  18 O18            0.8045     1.1296     5.9968 O.3     
  19 C19            1.2394     0.2231     5.0779 C.ar    
  20 C20            1.7730    -0.9960     5.4794 C.ar    
  21 C21            1.1455     0.5257     3.7282 C.ar    
  22 C22            1.5840    -0.3810     2.7815 C.ar    
  23 C23            2.1191    -1.5965     3.1798 C.ar    
  24 C24            2.2135    -1.9038     4.5286 C.ar    
  25 O25            2.5510    -2.4874     2.2477 O.3     
  26 C26           -1.2434     2.1394     0.0198 C.3     
  27 C27           -0.9983     2.7577    -1.3325 C.ar    
  28 C28           -1.5141     4.0064    -1.6252 C.ar    
  29 C29           -1.2893     4.5736    -2.8656 C.ar    
  30 C30           -0.5482     3.8924    -3.8131 C.ar    
  31 C31           -0.0317     2.6441    -3.5200 C.ar    
  32 C32           -0.2528     2.0788    -2.2781 C.ar    
  33 C33           -2.3415     1.1129    -0.0889 C.ar    
  34 C34           -3.4805     1.2347     0.6849 C.ar    
  35 C35           -4.4877     0.2931     0.5853 C.ar    
  36 C36           -4.3560    -0.7700    -0.2884 C.ar    
  37 C37           -3.2174    -0.8913    -1.0629 C.ar    
  38 C38           -2.2121     0.0527    -0.9664 C.ar    
  39 H39            1.8877    -0.8573     0.7093 H       
  40 H40            4.9105     3.2507     0.8738 H       
  41 H41            0.8695     4.1015    -0.2211 H       
  42 H42            4.9490     5.3235     1.1304 H       
  43 H43            5.2789     4.7584    -0.5249 H       
  44 H44            4.8163     6.4532    -0.2386 H       
  45 H45            6.4214     0.4731     2.1235 H       
  46 H46            6.1402     1.5570     0.7398 H       
  47 H47            5.8101     2.1227     2.3949 H       
  48 H48            1.6053    -0.6246     8.7351 H       
  49 H49            2.6775     0.3633     7.7088 H       
  50 H50           -0.3431     0.0442     7.3367 H       
  51 H51            0.4724     1.4790     8.0114 H       
  52 H52            0.7293     1.4721     3.4157 H       
  53 H53            2.6306    -2.8505     4.8386 H       
  54 H54            3.4809    -2.3822     2.0041 H       
  55 H55           -1.5398     2.9152     0.7257 H       
  56 H56           -2.0930     4.5386    -0.8850 H       
  57 H57           -1.6928     5.5488    -3.0946 H       
  58 H58           -0.3732     4.3352    -4.7825 H       
  59 H59            0.5470     2.1117    -4.2604 H       
  60 H60            0.1538     1.1051    -2.0478 H       
  61 H61           -3.5833     2.0653     1.3675 H       
  62 H62           -5.3772     0.3879     1.1903 H       
  63 H63           -5.1426    -1.5060    -0.3658 H       
  64 H64           -3.1144    -1.7220    -1.7452 H       
  65 H65           -1.3242    -0.0401    -1.5741 H       
@<TRIPOS>BOND
   1    1    2 am
   2    1    9 1
   3    1   26 1
   4    2    3 1
   5    2   10 2
   6    3    4 1
   7    3   22 1
   8    3   39 1
   9    4    5 ar
  10    4    9 ar
  11    5    6 ar
  12    5   13 1
  13    6    7 ar
  14    6   40 1
  15    7    8 ar
  16    7   11 1
  17    8    9 ar
  18    8   41 1
  19   11   12 1
  20   12   42 1
  21   12   43 1
  22   12   44 1
  23   13   14 1
  24   14   45 1
  25   14   46 1
  26   14   47 1
  27   15   16 1
  28   15   20 1
  29   16   17 1
  30   16   48 1
  31   16   49 1
  32   17   18 1
  33   17   50 1
  34   17   51 1
  35   18   19 1
  36   19   20 ar
  37   19   21 ar
  38   20   24 ar
  39   21   22 ar
  40   21   52 1
  41   22   23 ar
  42   23   24 ar
  43   23   25 1
  44   24   53 1
  45   25   54 1
  46   26   27 1
  47   26   33 1
  48   26   55 1
  49   27   28 ar
  50   27   32 ar
  51   28   29 ar
  52   28   56 1
  53   29   30 ar
  54   29   57 1
  55   30   31 ar
  56   30   58 1
  57   31   32 ar
  58   31   59 1
  59   32   60 1
  60   33   34 ar
  61   33   38 ar
  62   34   35 ar
  63   34   61 1
  64   35   36 ar
  65   35   62 1
  66   36   37 ar
  67   36   63 1
  68   37   38 ar
  69   37   64 1
  70   38   65 1

#	End of record

