#	Name: ASD08178530
#	Creating user name:	WinNT
#	Creation time:	15. 06. 2019 21:19

#	Modifying user name:	WinNT
#	Modification time:	15. 06. 2019 21:19

#	Program:	/corina/corina34_cracker 3.40 0067  02.08.2006

@<TRIPOS>MOLECULE
ASD08178530
  40   40    0    0    0
SMALL
NO_CHARGES


@<TRIPOS>ATOM
   1 C1            -0.0167     1.3833     0.0096 C.ar    
   2 C2             0.0021    -0.0041     0.0020 C.ar    
   3 C3             1.2139    -0.6788    -0.0132 C.ar    
   4 C4             2.3989     0.0317    -0.0207 C.ar    
   5 C5             2.3774     1.4139    -0.0126 C.ar    
   6 C6             1.1706     2.0890     0.0021 C.ar    
   7 C7             1.0943     5.8468    -3.0344 C.3     
   8 O8             1.1122     5.4272    -1.6445 O.3     
   9 C9             1.1316     4.1062    -1.4069 C.2     
  10 C10            1.1509     3.5958     0.0109 C.3     
  11 O11            1.1336     3.3264    -2.3298 O.2     
  12 O12           -1.1648    -0.7006     0.0099 O.3     
  13 C13           -1.0693    -2.1264     0.0013 C.3     
  14 C14           -2.4533    -2.7227     0.0118 C.2     
  15 O15           -3.4220    -2.0007     0.0253 O.2     
  16 O16           -2.6098    -4.0558     0.0062 O.3     
  17 C17           -3.9715    -4.5597     0.0170 C.3     
  18 C18           -4.7125    -4.0536    -1.2222 C.3     
  19 C19           -3.9493    -6.0895     0.0086 C.3     
  20 C20           -4.6876    -4.0670     1.2761 C.3     
  21 H21           -0.9590     1.9110     0.0170 H       
  22 H22            1.2312    -1.7587    -0.0188 H       
  23 H23            3.3426    -0.4933    -0.0325 H       
  24 H24            3.3047     1.9675    -0.0178 H       
  25 H25            0.2051     5.4482    -3.5229 H       
  26 H26            1.0795     6.9355    -3.0851 H       
  27 H27            1.9848     5.4716    -3.5387 H       
  28 H28            0.2609     3.9445     0.5347 H       
  29 H29            2.0406     3.9679     0.5189 H       
  30 H30           -0.5412    -2.4498    -0.8957 H       
  31 H31           -0.5235    -2.4593     0.8841 H       
  32 H32           -4.2023    -4.4046    -2.1192 H       
  33 H33           -5.7347    -4.4319    -1.2141 H       
  34 H34           -4.7283    -2.9637    -1.2162 H       
  35 H35           -3.4214    -6.4501     0.8915 H       
  36 H36           -4.9715    -6.4678     0.0167 H       
  37 H37           -3.4391    -6.4405    -0.8884 H       
  38 H38           -4.7035    -2.9771     1.2821 H       
  39 H39           -5.7099    -4.4453     1.2842 H       
  40 H40           -4.1598    -4.4276     2.1590 H       
@<TRIPOS>BOND
   1    1    2 ar
   2    1    6 ar
   3    1   21 1
   4    2    3 ar
   5    2   12 1
   6    3    4 ar
   7    3   22 1
   8    4    5 ar
   9    4   23 1
  10    5    6 ar
  11    5   24 1
  12    6   10 1
  13    7    8 1
  14    7   25 1
  15    7   26 1
  16    7   27 1
  17    8    9 1
  18    9   10 1
  19    9   11 2
  20   10   28 1
  21   10   29 1
  22   12   13 1
  23   13   14 1
  24   13   30 1
  25   13   31 1
  26   14   15 2
  27   14   16 1
  28   16   17 1
  29   17   18 1
  30   17   19 1
  31   17   20 1
  32   18   32 1
  33   18   33 1
  34   18   34 1
  35   19   35 1
  36   19   36 1
  37   19   37 1
  38   20   38 1
  39   20   39 1
  40   20   40 1

#	End of record

