#	Name: ASD08178453
#	Creating user name:	WinNT
#	Creation time:	15. 06. 2019 21:19

#	Modifying user name:	WinNT
#	Modification time:	15. 06. 2019 21:19

#	Program:	/corina/corina34_cracker 3.40 0067  02.08.2006

@<TRIPOS>MOLECULE
ASD08178453
  84   87    0    0    0
SMALL
NO_CHARGES


@<TRIPOS>ATOM
   1 N1            -0.0842     1.2802    -0.2019 N.am    
   2 C2            -0.1426    -0.1114    -0.2697 C.ar    
   3 C3             1.0246    -0.8534    -0.4399 C.ar    
   4 N4            -1.3072    -0.7342    -0.1673 N.ar    
   5 N5            -1.4037    -2.0128    -0.2242 N.ar    
   6 C6            -0.3524    -2.7916    -0.3882 C.ar    
   7 C7             0.9130    -2.2341    -0.5008 C.ar    
   8 C8            -0.5247    -4.2875    -0.4474 C.3     
   9 C9            -1.2626    -4.7658     0.8047 C.3     
  10 C10           -1.4375    -6.2846     0.7446 C.3     
  11 C11           -2.1754    -6.7629     1.9967 C.3     
  12 C12           -2.3477    -8.2588     1.9376 C.2     
  13 N13           -1.5204    -9.1420     2.3994 N.2     
  14 N14           -1.8462   -10.3528     2.2519 N.2     
  15 C15           -2.9720   -10.6059     1.6555 C.2     
  16 S16           -3.7159    -9.1215     1.2337 S.3     
  17 C17           -1.2220     2.0006    -0.1477 C.2     
  18 C18           -1.1601     3.4934     0.0491 C.3     
  19 O19           -2.2957     1.4474    -0.2572 O.2     
  20 C20           -2.5582     4.0553     0.0736 C.ar    
  21 C21           -3.2405     4.1581     1.2718 C.ar    
  22 C22           -3.1553     4.4728    -1.1010 C.ar    
  23 C23           -4.4374     4.9887    -1.0798 C.ar    
  24 C24           -5.1235     5.0873     0.1186 C.ar    
  25 C25           -4.5223     4.6736     1.2955 C.ar    
  26 N26           -3.4903   -11.8721     1.4058 N.am    
  27 C27           -2.8087   -12.9679     1.7945 C.2     
  28 O28           -1.7434   -12.8498     2.3620 O.2     
  29 C29           -3.3703   -14.3400     1.5239 C.3     
  30 C30           -2.4221   -15.3844     2.0541 C.ar    
  31 C31           -2.5520   -15.8403     3.3526 C.ar    
  32 C32           -1.6822   -16.7983     3.8390 C.ar    
  33 C33           -0.6828   -17.3007     3.0268 C.ar    
  34 C34           -0.5535   -16.8454     1.7280 C.ar    
  35 C35           -1.4260   -15.8906     1.2402 C.ar    
  36 F36           -6.3767     5.5914     0.1406 F       
  37 C37           -5.0880     5.4443    -2.3605 C.3     
  38 N38           -4.0538     5.8400    -3.3197 N.am    
  39 C39           -5.9163     4.2994    -2.9471 C.3     
  40 C40           -4.3155     6.7901    -4.2391 C.2     
  41 O41           -3.3650     7.1538    -5.1206 O.3     
  42 O42           -5.4092     7.3184    -4.2725 O.2     
  43 C43           -3.7170     8.1832    -6.0823 C.3     
  44 C44           -4.1013     9.4647    -5.3399 C.3     
  45 C45           -2.5196     8.4611    -6.9932 C.3     
  46 C46           -4.9011     7.7085    -6.9269 C.3     
  47 H47            0.7753     1.7296    -0.1896 H       
  48 H48            1.9859    -0.3682    -0.5222 H       
  49 H49            1.7849    -2.8569    -0.6358 H       
  50 H50           -1.1026    -4.5520    -1.3329 H       
  51 H51            0.4542    -4.7644    -0.4966 H       
  52 H52           -0.6847    -4.5014     1.6903 H       
  53 H53           -2.2415    -4.2890     0.8540 H       
  54 H54           -2.0154    -6.5490    -0.1409 H       
  55 H55           -0.4586    -6.7614     0.6954 H       
  56 H56           -1.5975    -6.4985     2.8823 H       
  57 H57           -3.1543    -6.2861     2.0460 H       
  58 H58           -0.6628     3.7151     0.9934 H       
  59 H59           -0.6013     3.9450    -0.7705 H       
  60 H60           -2.7715     3.8351     2.1894 H       
  61 H61           -2.6197     4.3961    -2.0357 H       
  62 H62           -5.0567     4.7496     2.2309 H       
  63 H63           -4.3423   -11.9666     0.9519 H       
  64 H64           -4.3361   -14.4413     2.0188 H       
  65 H65           -3.4965   -14.4756     0.4497 H       
  66 H66           -3.3328   -15.4479     3.9872 H       
  67 H67           -1.7832   -17.1541     4.8538 H       
  68 H68           -0.0028   -18.0487     3.4070 H       
  69 H69            0.2275   -17.2377     1.0935 H       
  70 H70           -1.3250   -15.5349     0.2255 H       
  71 H71           -5.7379     6.2949    -2.1553 H       
  72 H72           -3.1806     5.4183    -3.2930 H       
  73 H73           -5.2664     3.4487    -3.1522 H       
  74 H74           -6.6858     4.0049    -2.2334 H       
  75 H75           -6.3868     4.6289    -3.8734 H       
  76 H76           -3.2577     9.8028    -4.7381 H       
  77 H77           -4.3655    10.2374    -6.0618 H       
  78 H78           -4.9544     9.2667    -4.6909 H       
  79 H79           -2.2458     7.5481    -7.5221 H       
  80 H80           -2.7838     9.2338    -7.7151 H       
  81 H81           -1.6760     8.7992    -6.3914 H       
  82 H82           -5.7542     7.5106    -6.2780 H       
  83 H83           -5.1654     8.4813    -7.6489 H       
  84 H84           -4.6274     6.7956    -7.4558 H       
@<TRIPOS>BOND
   1    1    2 1
   2    1   17 am
   3    1   47 1
   4    2    3 ar
   5    2    4 ar
   6    3    7 ar
   7    3   48 1
   8    4    5 ar
   9    5    6 ar
  10    6    7 ar
  11    6    8 1
  12    7   49 1
  13    8    9 1
  14    8   50 1
  15    8   51 1
  16    9   10 1
  17    9   52 1
  18    9   53 1
  19   10   11 1
  20   10   54 1
  21   10   55 1
  22   11   12 1
  23   11   56 1
  24   11   57 1
  25   12   13 2
  26   12   16 1
  27   13   14 1
  28   14   15 2
  29   15   16 1
  30   15   26 1
  31   17   18 1
  32   17   19 2
  33   18   20 1
  34   18   58 1
  35   18   59 1
  36   20   21 ar
  37   20   22 ar
  38   21   25 ar
  39   21   60 1
  40   22   23 ar
  41   22   61 1
  42   23   24 ar
  43   23   37 1
  44   24   25 ar
  45   24   36 1
  46   25   62 1
  47   26   27 am
  48   26   63 1
  49   27   28 2
  50   27   29 1
  51   29   30 1
  52   29   64 1
  53   29   65 1
  54   30   31 ar
  55   30   35 ar
  56   31   32 ar
  57   31   66 1
  58   32   33 ar
  59   32   67 1
  60   33   34 ar
  61   33   68 1
  62   34   35 ar
  63   34   69 1
  64   35   70 1
  65   37   38 1
  66   37   39 1
  67   37   71 1
  68   38   40 am
  69   38   72 1
  70   39   73 1
  71   39   74 1
  72   39   75 1
  73   40   41 1
  74   40   42 2
  75   41   43 1
  76   43   44 1
  77   43   45 1
  78   43   46 1
  79   44   76 1
  80   44   77 1
  81   44   78 1
  82   45   79 1
  83   45   80 1
  84   45   81 1
  85   46   82 1
  86   46   83 1
  87   46   84 1

#	End of record

