#	Name: ASD01812156
#	Creating user name:	WinNT
#	Creation time:	15. 06. 2019 19:28

#	Modifying user name:	WinNT
#	Modification time:	15. 06. 2019 19:28

#	Program:	/corina/corina34_cracker 3.40 0067  02.08.2006

@<TRIPOS>MOLECULE
ASD01812156
  55   59    0    0    0
SMALL
NO_CHARGES


@<TRIPOS>ATOM
   1 C1            -0.0419     1.3424     0.3416 C.ar    
   2 C2            -0.0055    -0.0504     0.3377 C.ar    
   3 C3             1.1734    -0.7209     0.2151 C.ar    
   4 C4             2.3733    -0.0027     0.0899 C.ar    
   5 C5             2.3370     1.4162     0.0934 C.ar    
   6 C6             1.1003     2.0730     0.2225 C.ar    
   7 C7             3.6083    -0.6642    -0.0390 C.ar    
   8 C8             4.7559     0.0493    -0.1591 C.ar    
   9 C9             4.7363     1.4579    -0.1571 C.ar    
  10 C10            3.5323     2.1326    -0.0318 C.ar    
  11 C11            3.6565    -2.1704    -0.0431 C.3     
  12 C12            5.8177     2.4565    -0.2699 C.2     
  13 N13            5.3118     3.7005    -0.2171 N.am    
  14 C14            3.8554     3.6052    -0.0653 C.3     
  15 O15            6.9977     2.1913    -0.3927 O.2     
  16 C16            6.0844     4.9427    -0.2977 C.3     
  17 C17            6.8313     4.9930    -1.6320 C.3     
  18 C18            7.6381     6.2903    -1.7162 C.3     
  19 C19            8.6454     6.3400    -0.5656 C.3     
  20 C20            7.8985     6.2896     0.7687 C.3     
  21 C21            7.0917     4.9924     0.8529 C.3     
  22 O22            5.8905     4.9466    -2.7066 O.3     
  23 N23            3.4387    -2.6710     1.3207 N.3     
  24 C24            4.6675    -4.4555     2.4205 C.3     
  25 C25            4.6804    -3.1833     3.3084 C.3     
  26 C26            4.4045    -2.0713     2.2659 C.3     
  27 C27            3.5788    -4.1378     1.3738 C.3     
  28 F28            3.6649    -3.2326     4.2693 F       
  29 H29           -0.9906     1.8497     0.4361 H       
  30 H30           -0.9262    -0.6067     0.4337 H       
  31 H31            1.1854    -1.8009     0.2144 H       
  32 H32            1.0570     3.1521     0.2265 H       
  33 H33            5.6977    -0.4700    -0.2575 H       
  34 H34            2.8780    -2.5571    -0.7007 H       
  35 H35            4.6316    -2.5017    -0.4003 H       
  36 H36            3.3585     4.0788    -0.9120 H       
  37 H37            3.5437     4.0786     0.8657 H       
  38 H38            5.4094     5.7956    -0.2267 H       
  39 H39            7.5063     4.1401    -1.7029 H       
  40 H40            8.1703     6.3261    -2.6668 H       
  41 H41            6.9632     7.1432    -1.6452 H       
  42 H42            9.3204     5.4870    -0.6365 H       
  43 H43            9.2202     7.2641    -0.6256 H       
  44 H44            8.6161     6.3250     1.5884 H       
  45 H45            7.2235     7.1425     0.8396 H       
  46 H46            6.5595     4.9565     1.8035 H       
  47 H47            7.7666     4.1394     0.7820 H       
  48 H48            6.2947     4.9748    -3.5846 H       
  49 H49            5.6347    -4.5993     1.9390 H       
  50 H50            4.3938    -5.3323     3.0073 H       
  51 H51            5.6541    -3.0451     3.7783 H       
  52 H52            5.3243    -1.8004     1.7476 H       
  53 H53            3.9690    -1.1971     2.7498 H       
  54 H54            2.6334    -4.5901     1.6733 H       
  55 H55            3.8811    -4.5170     0.3976 H       
@<TRIPOS>BOND
   1    1    2 ar
   2    1    6 ar
   3    1   29 1
   4    2    3 ar
   5    2   30 1
   6    3    4 ar
   7    3   31 1
   8    4    5 ar
   9    4    7 ar
  10    5    6 ar
  11    5   10 ar
  12    6   32 1
  13    7    8 ar
  14    7   11 1
  15    8    9 ar
  16    8   33 1
  17    9   10 ar
  18    9   12 1
  19   10   14 1
  20   11   23 1
  21   11   34 1
  22   11   35 1
  23   12   13 am
  24   12   15 2
  25   13   14 1
  26   13   16 1
  27   14   36 1
  28   14   37 1
  29   16   17 1
  30   16   21 1
  31   16   38 1
  32   17   18 1
  33   17   22 1
  34   17   39 1
  35   18   19 1
  36   18   40 1
  37   18   41 1
  38   19   20 1
  39   19   42 1
  40   19   43 1
  41   20   21 1
  42   20   44 1
  43   20   45 1
  44   21   46 1
  45   21   47 1
  46   22   48 1
  47   23   27 1
  48   23   26 1
  49   24   25 1
  50   24   27 1
  51   24   49 1
  52   24   50 1
  53   25   26 1
  54   25   28 1
  55   25   51 1
  56   26   52 1
  57   26   53 1
  58   27   54 1
  59   27   55 1

#	End of record

