#	Name: ASD01238001
#	Creating user name:	WinNT
#	Creation time:	15. 06. 2019 19:15

#	Modifying user name:	WinNT
#	Modification time:	15. 06. 2019 19:15

#	Program:	/corina/corina34_cracker 3.40 0067  02.08.2006

@<TRIPOS>MOLECULE
ASD01238001
  46   49    0    0    0
SMALL
NO_CHARGES


@<TRIPOS>ATOM
   1 N1            -0.0291     1.3818     0.0867 N.pl3   
   2 N2             0.6811     0.9641     1.2224 N.2     
   3 C3             1.6782     0.2093     0.8301 C.2     
   4 C4             1.6380     0.1209    -0.5604 C.2     
   5 C5             2.5751    -0.6361    -1.4683 C.3     
   6 C6             1.9065    -0.7812    -2.8408 C.3     
   7 C7             1.3980     0.5849    -3.3091 C.3     
   8 C8             0.2015     1.0084    -2.4481 C.3     
   9 C9             0.5804     0.8508    -0.9970 C.2     
  10 C10            2.6934    -0.4497     1.7279 C.3     
  11 F11            2.3466    -0.2287     3.0651 F       
  12 F12            2.7176    -1.8252     1.4737 F       
  13 F13            3.9585     0.0930     1.4785 F       
  14 C14           -1.1661     2.1957     0.0777 C.ar    
  15 C15           -2.2306     1.8910    -0.7635 C.ar    
  16 C16           -3.3522     2.6902    -0.7747 C.ar    
  17 C17           -3.4196     3.8081     0.0605 C.ar    
  18 C18           -2.3482     4.1112     0.9044 C.ar    
  19 C19           -1.2320     3.3046     0.9142 C.ar    
  20 C20           -4.6203     4.6676     0.0511 C.2     
  21 O21           -5.7035     4.1956    -0.2351 O.2     
  22 N22           -4.5154     5.9754     0.3597 N.am    
  23 C23           -5.6075     6.9583     0.3079 C.3     
  24 C24           -5.0156     8.3229     0.7192 C.3     
  25 C25           -3.5010     8.1452     0.4332 C.3     
  26 C26           -3.2880     6.6558     0.8112 C.3     
  27 H27            3.5103    -0.0859    -1.5718 H       
  28 H28            2.7735    -1.6231    -1.0504 H       
  29 H29            2.6312    -1.1646    -3.5591 H       
  30 H30            1.0687    -1.4743    -2.7653 H       
  31 H31            2.1949     1.3222    -3.2113 H       
  32 H32            1.0896     0.5196    -4.3525 H       
  33 H33           -0.0469     2.0500    -2.6516 H       
  34 H34           -0.6562     0.3750    -2.6744 H       
  35 H35           -2.1776     1.0269    -1.4092 H       
  36 H36           -4.1784     2.4532    -1.4285 H       
  37 H37           -2.3969     4.9748     1.5511 H       
  38 H38           -0.4051     3.5359     1.5692 H       
  39 H39           -6.0056     7.0171    -0.7051 H       
  40 H40           -6.3970     6.6721     1.0027 H       
  41 H41           -5.4320     9.1238     0.1083 H       
  42 H42           -5.1882     8.5147     1.7782 H       
  43 H43           -3.2790     8.3201    -0.6195 H       
  44 H44           -2.9039     8.7975     1.0704 H       
  45 H45           -3.1697     6.5489     1.8895 H       
  46 H46           -2.4182     6.2536     0.2917 H       
@<TRIPOS>BOND
   1    1    2 1
   2    1    9 1
   3    1   14 1
   4    2    3 2
   5    3    4 1
   6    3   10 1
   7    4    5 1
   8    4    9 2
   9    5    6 1
  10    5   27 1
  11    5   28 1
  12    6    7 1
  13    6   29 1
  14    6   30 1
  15    7    8 1
  16    7   31 1
  17    7   32 1
  18    8    9 1
  19    8   33 1
  20    8   34 1
  21   10   11 1
  22   10   12 1
  23   10   13 1
  24   14   15 ar
  25   14   19 ar
  26   15   16 ar
  27   15   35 1
  28   16   17 ar
  29   16   36 1
  30   17   18 ar
  31   17   20 1
  32   18   19 ar
  33   18   37 1
  34   19   38 1
  35   20   21 2
  36   20   22 am
  37   22   23 1
  38   22   26 1
  39   23   24 1
  40   23   39 1
  41   23   40 1
  42   24   25 1
  43   24   41 1
  44   24   42 1
  45   25   26 1
  46   25   43 1
  47   25   44 1
  48   26   45 1
  49   26   46 1

#	End of record

