#	Name: ASD03240980
#	Creating user name:	WinNT
#	Creation time:	15. 06. 2019 20:35

#	Modifying user name:	WinNT
#	Modification time:	15. 06. 2019 20:35

#	Program:	/corina/corina34_cracker 3.40 0067  02.08.2006

@<TRIPOS>MOLECULE
ASD03240980
  61   66    0    0    0
SMALL
NO_CHARGES


@<TRIPOS>ATOM
   1 C1             0.1256     1.6261    -0.1151 C.3     
   2 C2             0.1521     0.0913    -0.2078 C.3     
   3 C3             1.5805     0.2279    -0.7609 C.3     
   4 C4             1.6588     1.5678    -0.0103 C.3     
   5 O5            -0.3430     2.2635    -1.3051 O.3     
   6 C6             2.5335    -0.8147    -0.2357 C.ar    
   7 C7             3.5925    -1.2372    -1.0193 C.ar    
   8 C8             4.4687    -2.1912    -0.5440 C.ar    
   9 C9             4.2850    -2.7298     0.7296 C.ar    
  10 C10            3.2153    -2.2997     1.5149 C.ar    
  11 C11            2.3490    -1.3413     1.0303 C.ar    
  12 N12            6.8302    -6.7142     0.0376 N.pl3   
  13 C13            7.6944    -7.6717     0.4951 C.2     
  14 N14            8.1862    -7.6487     1.7466 N.2     
  15 C15            7.8675    -6.7100     2.6000 C.2     
  16 C16            6.9489    -5.6529     2.1826 C.ar    
  17 C17            6.5701    -4.6226     3.0500 C.ar    
  18 C18            5.6902    -3.6580     2.5705 C.ar    
  19 C19            5.2214    -3.7544     1.2457 C.ar    
  20 N20            5.6026    -4.7449     0.4533 N.ar    
  21 C21            6.4361    -5.6829     0.8683 C.ar    
  22 C22            7.8984    -8.5597    -0.5524 C.2     
  23 C23            7.1464    -8.1179    -1.6337 C.2     
  24 N24            6.5065    -7.0265    -1.2883 N.2     
  25 C25            5.2518    -2.5420     3.4426 C.ar    
  26 C26            5.6453    -1.2352     3.1576 C.ar    
  27 C27            4.4325    -0.4579     5.0706 C.ar    
  28 C28            4.4401    -2.7946     4.5471 C.ar    
  29 C29            5.2338    -0.2005     3.9725 C.ar    
  30 C30            4.0347    -1.7517     5.3551 C.ar    
  31 C31            6.5186    -0.9533     1.9623 C.3     
  32 C32            7.0732    -8.7871    -2.9820 C.3     
  33 C33           -0.5555     2.1520     1.1500 C.3     
  34 N34            1.6348     0.3679    -2.2222 N.3     
  35 H35            0.1048    -0.4055     0.7612 H       
  36 H36           -0.5580    -0.3149    -0.9280 H       
  37 H37            2.1649     2.3535    -0.5712 H       
  38 H38            2.0233     1.4746     1.0127 H       
  39 H39           -0.3620     3.2289    -1.2529 H       
  40 H40            3.7335    -0.8197    -2.0053 H       
  41 H41            5.2948    -2.5205    -1.1567 H       
  42 H42            3.0677    -2.7133     2.5015 H       
  43 H43            1.5229    -1.0045     1.6389 H       
  44 H44            8.2772    -6.7164     3.5993 H       
  45 H45            6.9484    -4.5782     4.0606 H       
  46 H46            8.5285    -9.4366    -0.5305 H       
  47 H47            4.1131     0.3550     5.7058 H       
  48 H48            4.1287    -3.8044     4.7700 H       
  49 H49            5.5383     0.8122     3.7530 H       
  50 H50            3.4095    -1.9467     6.2138 H       
  51 H51            5.8955    -0.8453     1.0745 H       
  52 H52            7.0763    -0.0318     2.1290 H       
  53 H53            7.2156    -1.7790     1.8187 H       
  54 H54            6.2595    -9.5124    -2.9839 H       
  55 H55            6.8922    -8.0361    -3.7510 H       
  56 H56            8.0148    -9.2968    -3.1862 H       
  57 H57           -0.0262     1.7822     2.0282 H       
  58 H58           -0.5366     3.2419     1.1465 H       
  59 H59           -1.5890     1.8067     1.1765 H       
  60 H60            2.5879     0.4544    -2.5420 H       
  61 H61            1.1694    -0.4033    -2.6769 H       
@<TRIPOS>BOND
   1    1    2 1
   2    1    4 1
   3    1    5 1
   4    1   33 1
   5    2    3 1
   6    2   35 1
   7    2   36 1
   8    3    4 1
   9    3    6 1
  10    3   34 1
  11    4   37 1
  12    4   38 1
  13    5   39 1
  14    6    7 ar
  15    6   11 ar
  16    7    8 ar
  17    7   40 1
  18    8    9 ar
  19    8   41 1
  20    9   10 ar
  21    9   19 1
  22   10   11 ar
  23   10   42 1
  24   11   43 1
  25   12   13 1
  26   12   21 1
  27   12   24 1
  28   13   14 1
  29   13   22 2
  30   14   15 2
  31   15   16 1
  32   15   44 1
  33   16   17 ar
  34   16   21 ar
  35   17   18 ar
  36   17   45 1
  37   18   19 ar
  38   18   25 1
  39   19   20 ar
  40   20   21 ar
  41   22   23 1
  42   22   46 1
  43   23   24 2
  44   23   32 1
  45   25   26 ar
  46   25   28 ar
  47   26   29 ar
  48   26   31 1
  49   27   29 ar
  50   27   30 ar
  51   27   47 1
  52   28   30 ar
  53   28   48 1
  54   29   49 1
  55   30   50 1
  56   31   51 1
  57   31   52 1
  58   31   53 1
  59   32   54 1
  60   32   55 1
  61   32   56 1
  62   33   57 1
  63   33   58 1
  64   33   59 1
  65   34   60 1
  66   34   61 1

#	End of record

