#	Name: ASD03331574
#	Creating user name:	WinNT
#	Creation time:	15. 06. 2019 20:39

#	Modifying user name:	WinNT
#	Modification time:	15. 06. 2019 20:39

#	Program:	/corina/corina34_cracker 3.40 0067  02.08.2006

@<TRIPOS>MOLECULE
ASD03331574
  56   58    0    0    0
SMALL
NO_CHARGES


@<TRIPOS>ATOM
   1 C1            -0.4658     0.7321     1.5452 C.ar    
   2 C2            -0.3141    -0.6766     1.1215 C.2     
   3 N3            -1.3295    -1.5756     0.9704 N.pl3   
   4 C4            -0.7687    -2.7586     0.5940 C.2     
   5 C5             0.5719    -2.5555     0.4938 C.2     
   6 N6             0.8189    -1.2680     0.8227 N.2     
   7 C7             1.5751    -3.5578     0.0933 C.2     
   8 O8             1.2267    -4.6894    -0.1849 O.2     
   9 N9             2.8787    -3.2206     0.0353 N.am    
  10 C10            3.8761    -4.2170    -0.3629 C.3     
  11 C11            5.2175    -3.8430     0.2129 C.2     
  12 C12           -2.7620    -1.3285     1.1514 C.3     
  13 C13           -3.4570    -2.6366     1.5375 C.3     
  14 O14           -3.8425    -3.3485     0.3602 O.3     
  15 C15           -2.7639    -3.7302    -0.4889 C.3     
  16 C16           -1.5286    -4.0381     0.3638 C.3     
  17 C17            3.9708    -4.2621    -1.8893 C.3     
  18 C18            4.3367    -2.8740    -2.4187 C.3     
  19 C19            5.0481    -5.2663    -2.3039 C.3     
  20 C20            2.6225    -4.6910    -2.4715 C.3     
  21 O21            5.4282    -2.7027     0.5684 O.2     
  22 C22            0.3531     1.2546     2.5497 C.ar    
  23 C23            0.2059     2.5724     2.9403 C.ar    
  24 C24           -0.7500     3.3719     2.3386 C.ar    
  25 C25           -1.5643     2.8580     1.3427 C.ar    
  26 C26           -1.4233     1.5467     0.9397 C.ar    
  27 Cl27          -0.9299     5.0258     2.8344 Cl      
  28 N28            6.1832    -4.7755     0.3328 N.am    
  29 C29            7.4518    -4.4370     0.9825 C.3     
  30 F30            1.2857     0.4740     3.1378 F       
  31 H31            3.1565    -2.3181     0.2572 H       
  32 H32            3.5803    -5.1969     0.0119 H       
  33 H33           -2.9072    -0.5924     1.9421 H       
  34 H34           -3.1866    -0.9519     0.2208 H       
  35 H35           -2.7734    -3.2504     2.1241 H       
  36 H36           -4.3428    -2.4141     2.1323 H       
  37 H37           -3.0444    -4.6176    -1.0562 H       
  38 H38           -2.5370    -2.9156    -1.1767 H       
  39 H39           -0.8923    -4.7522    -0.1590 H       
  40 H40           -1.8402    -4.4555     1.3213 H       
  41 H41            5.2972    -2.5685    -2.0039 H       
  42 H42            4.4042    -2.9061    -3.5061 H       
  43 H43            3.5692    -2.1586    -2.1233 H       
  44 H44            4.7679    -6.2622    -1.9607 H       
  45 H45            5.1431    -5.2696    -3.3898 H       
  46 H46            6.0008    -4.9826    -1.8568 H       
  47 H47            1.8551    -3.9755    -2.1761 H       
  48 H48            2.6901    -4.7231    -3.5590 H       
  49 H49            2.3619    -5.6799    -2.0943 H       
  50 H50            0.8376     2.9785     3.7164 H       
  51 H51           -2.3086     3.4873     0.8775 H       
  52 H52           -2.0590     1.1484     0.1628 H       
  53 H53            6.0382    -5.6708    -0.0111 H       
  54 H54            8.1029    -5.3112     0.9860 H       
  55 H55            7.9347    -3.6265     0.4365 H       
  56 H56            7.2618    -4.1213     2.0083 H       
@<TRIPOS>BOND
   1    1    2 1
   2    1   22 ar
   3    1   26 ar
   4    2    3 1
   5    2    6 2
   6    3    4 1
   7    3   12 1
   8    4    5 2
   9    4   16 1
  10    5    6 1
  11    5    7 1
  12    7    8 2
  13    7    9 am
  14    9   10 1
  15    9   31 1
  16   10   11 1
  17   10   17 1
  18   10   32 1
  19   11   21 2
  20   11   28 am
  21   12   13 1
  22   12   33 1
  23   12   34 1
  24   13   14 1
  25   13   35 1
  26   13   36 1
  27   14   15 1
  28   15   16 1
  29   15   37 1
  30   15   38 1
  31   16   39 1
  32   16   40 1
  33   17   18 1
  34   17   19 1
  35   17   20 1
  36   18   41 1
  37   18   42 1
  38   18   43 1
  39   19   44 1
  40   19   45 1
  41   19   46 1
  42   20   47 1
  43   20   48 1
  44   20   49 1
  45   22   23 ar
  46   22   30 1
  47   23   24 ar
  48   23   50 1
  49   24   25 ar
  50   24   27 1
  51   25   26 ar
  52   25   51 1
  53   26   52 1
  54   28   29 1
  55   28   53 1
  56   29   54 1
  57   29   55 1
  58   29   56 1

#	End of record

