#	Name: ASD01911531
#	Creating user name:	WinNT
#	Creation time:	15. 06. 2019 19:57

#	Modifying user name:	WinNT
#	Modification time:	15. 06. 2019 19:57

#	Program:	/corina/corina34_cracker 3.40 0067  02.08.2006

@<TRIPOS>MOLECULE
ASD01911531
  47   48    0    0    0
SMALL
NO_CHARGES


@<TRIPOS>ATOM
   1 O1             1.5513     1.2177    -0.9430 O.3     
   2 C2             1.4678    -0.1160    -0.8184 C.2     
   3 N3             1.0875    -0.7210     0.3120 N.am    
   4 C4             0.7728     0.0093     1.5372 C.3     
   5 C5             0.4727     1.4745     1.2084 C.3     
   6 C6             1.5791     1.9991     0.2832 C.3     
   7 O7             1.7505    -0.8060    -1.7776 O.2     
   8 C8             0.9866    -2.1105     0.3213 C.ar    
   9 C9            -0.2292    -2.7123     0.0109 C.ar    
  10 C10           -0.3223    -4.0897     0.0220 C.ar    
  11 C11            0.8207    -4.8319     0.3481 C.ar    
  12 C12            2.0031    -4.1567     0.6476 C.ar    
  13 N13            2.0502    -2.8403     0.6202 N.ar    
  14 C14            0.7749    -6.2629     0.3737 C.1     
  15 C15            0.7373    -7.4361     0.3948 C.1     
  16 Si16           0.6764    -9.3348     0.4288 Si      
  17 C17            2.3522   -10.0016     0.8957 C.3     
  18 C18           -0.5850    -9.8934     1.6808 C.3     
  19 C19            0.2025    -9.9713    -1.2567 C.3     
  20 C20            2.9399     1.8428     0.9647 C.3     
  21 C21            1.3276     3.4737    -0.0381 C.3     
  22 O22           -0.7915     1.5707     0.5492 O.3     
  23 C23           -1.8976     1.7479     1.4364 C.3     
  24 H24           -0.0984    -0.4407     2.0132 H       
  25 H25            1.6226    -0.0423     2.2178 H       
  26 H26            0.4538     2.0605     2.1273 H       
  27 H27           -1.0901    -2.1086    -0.2355 H       
  28 H28           -1.2535    -4.5831    -0.2146 H       
  29 H29            2.8902    -4.7183     0.9004 H       
  30 H30            2.6295    -9.6292     1.8819 H       
  31 H31            2.3173   -11.0908     0.9153 H       
  32 H32            3.0903    -9.6748     0.1632 H       
  33 H33           -1.5655    -9.5033     1.4076 H       
  34 H34           -0.6199   -10.9826     1.7004 H       
  35 H35           -0.3077    -9.5210     2.6670 H       
  36 H36            0.9405    -9.6445    -1.9892 H       
  37 H37            0.1676   -11.0605    -1.2372 H       
  38 H38           -0.7780    -9.5812    -1.5299 H       
  39 H39            3.7244     2.1945     0.2947 H       
  40 H40            2.9561     2.4300     1.8829 H       
  41 H41            3.1088     0.7925     1.2022 H       
  42 H42            0.3521     3.5810    -0.5125 H       
  43 H43            1.3494     4.0553     0.8835 H       
  44 H44            2.1022     3.8355    -0.7143 H       
  45 H45           -1.7619     2.6663     2.0075 H       
  46 H46           -2.8199     1.8120     0.8589 H       
  47 H47           -1.9548     0.9004     2.1195 H       
@<TRIPOS>BOND
   1    1    2 1
   2    1    6 1
   3    2    3 am
   4    2    7 2
   5    3    4 1
   6    3    8 1
   7    4    5 1
   8    4   24 1
   9    4   25 1
  10    5    6 1
  11    5   22 1
  12    5   26 1
  13    6   20 1
  14    6   21 1
  15    8    9 ar
  16    8   13 ar
  17    9   10 ar
  18    9   27 1
  19   10   11 ar
  20   10   28 1
  21   11   12 ar
  22   11   14 1
  23   12   13 ar
  24   12   29 1
  25   14   15 3
  26   15   16 1
  27   16   17 1
  28   16   18 1
  29   16   19 1
  30   17   30 1
  31   17   31 1
  32   17   32 1
  33   18   33 1
  34   18   34 1
  35   18   35 1
  36   19   36 1
  37   19   37 1
  38   19   38 1
  39   20   39 1
  40   20   40 1
  41   20   41 1
  42   21   42 1
  43   21   43 1
  44   21   44 1
  45   22   23 1
  46   23   45 1
  47   23   46 1
  48   23   47 1

#	End of record

