#	Name: ASD01912809
#	Creating user name:	WinNT
#	Creation time:	15. 06. 2019 20:00

#	Modifying user name:	WinNT
#	Modification time:	15. 06. 2019 20:00

#	Program:	/corina/corina34_cracker 3.40 0067  02.08.2006

@<TRIPOS>MOLECULE
ASD01912809
  41   44    0    0    0
SMALL
NO_CHARGES


@<TRIPOS>ATOM
   1 C1            -0.0264     1.3420     0.2535 C.2     
   2 N2             0.0029    -0.0020    -0.0158 N.pl3   
   3 C3            -1.1912    -0.6643    -0.2587 C.2     
   4 C4            -2.3524    -0.0229    -0.2347 C.2     
   5 N5            -2.4358     1.3307     0.0317 N.am    
   6 C6            -1.3128     2.0398     0.2834 C.2     
   7 C7             1.2832     1.7375     0.4525 C.2     
   8 C8             2.0430     0.5806     0.2873 C.2     
   9 N9             1.2235    -0.4067     0.0131 N.2     
  10 O10           -1.3691     3.2331     0.5203 O.2     
  11 C11           -3.6826     1.9657     0.0461 C.ar    
  12 C12            3.5423     0.4814     0.4026 C.3     
  13 O13            4.0824     1.7679     0.7113 O.3     
  14 C14            5.4294     1.8532     0.8501 C.ar    
  15 C15            6.0137     3.0769     1.1501 C.ar    
  16 C16            7.3889     3.1505     1.2891 C.ar    
  17 C17            8.1340     1.9916     1.1222 C.ar    
  18 C18            7.4862     0.8089     0.8247 C.ar    
  19 N19            6.1730     0.7691     0.7037 N.ar    
  20 C20           -4.0008     2.8972    -0.9343 C.ar    
  21 C21           -4.6069     1.6620     1.0371 C.ar    
  22 C22           -5.8369     2.2903     1.0482 C.ar    
  23 C23           -6.1484     3.2208     0.0740 C.ar    
  24 C24           -5.2322     3.5217    -0.9174 C.ar    
  25 C25           -5.5758     4.5369    -1.9769 C.3     
  26 H26           -1.1755    -1.7229    -0.4720 H       
  27 H27           -3.2598    -0.5752    -0.4296 H       
  28 H28            1.6408     2.7296     0.6854 H       
  29 H29            3.8000    -0.2207     1.1955 H       
  30 H30            3.9569     0.1305    -0.5424 H       
  31 H31            5.4032     3.9593     1.2729 H       
  32 H32            7.8711     4.0884     1.5217 H       
  33 H33            9.2090     2.0145     1.2235 H       
  34 H34            8.0614    -0.0957     0.6935 H       
  35 H35           -3.2856     3.1329    -1.7085 H       
  36 H36           -4.3643     0.9350     1.7981 H       
  37 H37           -6.5563     2.0543     1.8184 H       
  38 H38           -7.1109     3.7106     0.0849 H       
  39 H39           -5.2672     5.5279    -1.6441 H       
  40 H40           -5.0568     4.2864    -2.9021 H       
  41 H41           -6.6518     4.5306    -2.1507 H       
@<TRIPOS>BOND
   1    1    2 1
   2    1    7 2
   3    1    6 1
   4    2    3 1
   5    2    9 1
   6    3    4 2
   7    3   26 1
   8    4    5 1
   9    4   27 1
  10    5    6 am
  11    5   11 1
  12    6   10 2
  13    7    8 1
  14    7   28 1
  15    8    9 2
  16    8   12 1
  17   11   21 ar
  18   11   20 ar
  19   12   13 1
  20   12   29 1
  21   12   30 1
  22   13   14 1
  23   14   15 ar
  24   14   19 ar
  25   15   16 ar
  26   15   31 1
  27   16   17 ar
  28   16   32 1
  29   17   18 ar
  30   17   33 1
  31   18   19 ar
  32   18   34 1
  33   20   24 ar
  34   20   35 1
  35   21   22 ar
  36   21   36 1
  37   22   23 ar
  38   22   37 1
  39   23   24 ar
  40   23   38 1
  41   24   25 1
  42   25   39 1
  43   25   40 1
  44   25   41 1

#	End of record

