#	Name: ASD03240767
#	Creating user name:	WinNT
#	Creation time:	15. 06. 2019 20:35

#	Modifying user name:	WinNT
#	Modification time:	15. 06. 2019 20:35

#	Program:	/corina/corina34_cracker 3.40 0067  02.08.2006

@<TRIPOS>MOLECULE
ASD03240767
  75   81    0    0    0
SMALL
NO_CHARGES


@<TRIPOS>ATOM
   1 C1            -0.8907     2.9026    -0.9918 C.2     
   2 N2            -1.0872     1.5729    -1.0343 N.2     
   3 C3            -0.0956     0.7225    -0.9660 C.2     
   4 C4             1.2686     1.2310    -0.8397 C.ar    
   5 C5             1.4682     2.6275    -0.7957 C.ar    
   6 N6             0.3592     3.4478    -0.8745 N.pl3   
   7 C7             2.3696     0.3720    -0.7618 C.ar    
   8 C8             3.6333     0.9417    -0.6424 C.ar    
   9 C9             3.7530     2.3444    -0.6051 C.ar    
  10 N10            2.6865     3.1265    -0.6824 N.ar    
  11 N11            0.2199     4.8409    -0.8595 N.2     
  12 C12           -1.0529     5.1396    -0.9624 C.2     
  13 C13           -1.7861     3.9623    -1.0420 C.2     
  14 C14            4.8386     0.0829    -0.5551 C.ar    
  15 C15            4.8821    -0.9713     0.3559 C.ar    
  16 C16            6.0065    -1.7677     0.4324 C.ar    
  17 C17            7.0894    -1.5211    -0.3923 C.ar    
  18 C18            7.0521    -0.4761    -1.2979 C.ar    
  19 C19            5.9306     0.3231    -1.3876 C.ar    
  20 C20           -1.6272     6.5327    -0.9837 C.3     
  21 C21            5.0955     2.9563    -0.4782 C.ar    
  22 C22            5.3812     4.1586    -1.1251 C.ar    
  23 C23            6.6340     4.7237    -1.0030 C.ar    
  24 C24            7.6059     4.1003    -0.2409 C.ar    
  25 C25            7.3287     2.9077     0.4032 C.ar    
  26 C26            6.0779     2.3356     0.2935 C.ar    
  27 C27            8.9723     4.7227    -0.1121 C.3     
  28 N28            8.9914     5.6268     1.0455 N.3     
  29 C29           10.3594     6.0682     1.3460 C.3     
  30 C30           10.3602     6.8873     2.6386 C.3     
  31 C31            9.4385     8.0984     2.4703 C.3     
  32 C32            8.0316     7.6131     2.1104 C.3     
  33 C33            8.0983     6.7729     0.8330 C.3     
  34 C34            9.3884     8.8763     3.7601 C.2     
  35 N35            8.6343     9.9900     3.8464 N.am    
  36 O36           10.0266     8.5000     4.7204 O.2     
  37 C37            8.5096    10.6583     5.0715 C.ar    
  38 C38            9.5882    10.7163     5.9440 C.ar    
  39 C39            9.4648    11.3756     7.1510 C.ar    
  40 C40            8.2634    11.9795     7.4922 C.ar    
  41 C41            7.1854    11.9219     6.6210 C.ar    
  42 C42            7.3092    11.2678     5.4112 C.ar    
  43 O43            8.1423    12.6277     8.6813 O.3     
  44 H44           -0.2825    -0.3406    -1.0022 H       
  45 H45            2.2428    -0.7001    -0.7930 H       
  46 H46           -2.8598     3.8853    -1.1297 H       
  47 H47            4.0375    -1.1643     1.0008 H       
  48 H48            6.0413    -2.5847     1.1378 H       
  49 H49            7.9674    -2.1467    -0.3287 H       
  50 H50            7.9006    -0.2880    -1.9391 H       
  51 H51            5.9009     1.1359    -2.0981 H       
  52 H52           -1.6784     6.8889    -2.0126 H       
  53 H53           -2.6286     6.5196    -0.5534 H       
  54 H54           -0.9898     7.1974    -0.4005 H       
  55 H55            4.6234     4.6460    -1.7206 H       
  56 H56            6.8565     5.6544    -1.5037 H       
  57 H57            8.0915     2.4258     0.9967 H       
  58 H58            5.8613     1.4068     0.8003 H       
  59 H59            9.7169     3.9389     0.0266 H       
  60 H60            9.2017     5.2858    -1.0168 H       
  61 H61           11.0036     5.1974     1.4674 H       
  62 H62           10.7309     6.6830     0.5262 H       
  63 H63           10.0018     6.2689     3.4616 H       
  64 H64           11.3732     7.2279     2.8530 H       
  65 H65            9.8185     8.7373     1.6731 H       
  66 H66            7.6366     7.0061     2.9250 H       
  67 H67            7.3809     8.4722     1.9473 H       
  68 H68            8.4804     7.3845     0.0156 H       
  69 H69            7.1002     6.4139     0.5819 H       
  70 H70            8.1779    10.3289     3.0605 H       
  71 H71           10.5234    10.2456     5.6787 H       
  72 H72           10.3037    11.4208     7.8297 H       
  73 H73            6.2503    12.3919     6.8875 H       
  74 H74            6.4712    11.2266     4.7312 H       
  75 H75            8.3759    13.5653     8.6437 H       
@<TRIPOS>BOND
   1    1    2 1
   2    1    6 1
   3    1   13 2
   4    2    3 2
   5    3    4 1
   6    3   44 1
   7    4    5 ar
   8    4    7 ar
   9    5    6 1
  10    5   10 ar
  11    6   11 1
  12    7    8 ar
  13    7   45 1
  14    8    9 ar
  15    8   14 1
  16    9   10 ar
  17    9   21 1
  18   11   12 2
  19   12   13 1
  20   12   20 1
  21   13   46 1
  22   14   15 ar
  23   14   19 ar
  24   15   16 ar
  25   15   47 1
  26   16   17 ar
  27   16   48 1
  28   17   18 ar
  29   17   49 1
  30   18   19 ar
  31   18   50 1
  32   19   51 1
  33   20   52 1
  34   20   53 1
  35   20   54 1
  36   21   22 ar
  37   21   26 ar
  38   22   23 ar
  39   22   55 1
  40   23   24 ar
  41   23   56 1
  42   24   25 ar
  43   24   27 1
  44   25   26 ar
  45   25   57 1
  46   26   58 1
  47   27   28 1
  48   27   59 1
  49   27   60 1
  50   28   29 1
  51   28   33 1
  52   29   30 1
  53   29   61 1
  54   29   62 1
  55   30   31 1
  56   30   63 1
  57   30   64 1
  58   31   32 1
  59   31   34 1
  60   31   65 1
  61   32   33 1
  62   32   66 1
  63   32   67 1
  64   33   68 1
  65   33   69 1
  66   34   35 am
  67   34   36 2
  68   35   37 1
  69   35   70 1
  70   37   38 ar
  71   37   42 ar
  72   38   39 ar
  73   38   71 1
  74   39   40 ar
  75   39   72 1
  76   40   41 ar
  77   40   43 1
  78   41   42 ar
  79   41   73 1
  80   42   74 1
  81   43   75 1

#	End of record

