#	Name: ASD03090282
#	Creating user name:	WinNT
#	Creation time:	15. 06. 2019 20:28

#	Modifying user name:	WinNT
#	Modification time:	15. 06. 2019 20:28

#	Program:	/corina/corina34_cracker 3.40 0067  02.08.2006

@<TRIPOS>MOLECULE
ASD03090282
  45   47    0    0    0
SMALL
NO_CHARGES


@<TRIPOS>ATOM
   1 N1             0.4457     1.5132     1.4664 N.ar    
   2 C2             0.4077     0.1951     1.4315 C.ar    
   3 C3             1.5346    -0.5383     1.1211 C.ar    
   4 C4             2.7276     0.1369     0.8416 C.ar    
   5 C5             2.7219     1.5351     0.8902 C.ar    
   6 C6             1.5493     2.1886     1.2095 C.ar    
   7 C7             3.9616    -0.6073     0.5041 C.2     
   8 N8             5.7410    -3.4561    -0.5314 N.pl3   
   9 C9             4.8145    -4.4458    -0.8757 C.ar    
  10 C10            3.5981    -4.0919    -1.4446 C.ar    
  11 C11            2.6846    -5.0710    -1.7837 C.ar    
  12 C12            2.9808    -6.4042    -1.5564 C.ar    
  13 C13            4.1933    -6.7594    -0.9891 C.ar    
  14 C14            5.1121    -5.7844    -0.6542 C.ar    
  15 N15            4.0261    -1.8634     0.1104 N.2     
  16 C16            5.2976    -2.2024    -0.1059 C.2     
  17 N17            6.0658    -1.1672     0.1465 N.2     
  18 N18            5.2206    -0.1169     0.5398 N.pl3   
  19 C19            5.6242     1.2389     0.9208 C.3     
  20 F20            2.0856    -7.3601    -1.8880 F       
  21 C21            5.7279     2.1111    -0.3319 C.3     
  22 N22            6.1314     3.4669     0.0491 N.am    
  23 C23            6.2873     4.4145    -0.8966 C.2     
  24 C24            6.7024     5.8091    -0.5047 C.3     
  25 O25            6.0936     4.1447    -2.0631 O.2     
  26 C26            4.5126    -8.2114    -0.7425 C.3     
  27 F27            5.7833    -8.3183    -0.1671 F       
  28 F28            3.5604    -8.7575     0.1249 F       
  29 F29            4.4905    -8.9065    -1.9565 F       
  30 H30           -0.5179    -0.3171     1.6492 H       
  31 H31            1.4963    -1.6173     1.0947 H       
  32 H32            3.6218     2.0945     0.6814 H       
  33 H33            1.5348     3.2678     1.2493 H       
  34 H34            6.6916    -3.6407    -0.5883 H       
  35 H35            3.3663    -3.0520    -1.6214 H       
  36 H36            1.7385    -4.7963    -2.2261 H       
  37 H37            6.0577    -6.0619    -0.2122 H       
  38 H38            4.8820     1.6621     1.5978 H       
  39 H39            6.5926     1.2030     1.4198 H       
  40 H40            6.4700     1.6879    -1.0089 H       
  41 H41            4.7595     2.1470    -0.8309 H       
  42 H42            6.2864     3.6827     0.9820 H       
  43 H43            7.7901     5.8804    -0.5129 H       
  44 H44            6.2861     6.5249    -1.2135 H       
  45 H45            6.3314     6.0310     0.4959 H       
@<TRIPOS>BOND
   1    1    2 ar
   2    1    6 ar
   3    2    3 ar
   4    2   30 1
   5    3    4 ar
   6    3   31 1
   7    4    5 ar
   8    4    7 1
   9    5    6 ar
  10    5   32 1
  11    6   33 1
  12    7   15 2
  13    7   18 1
  14    8    9 1
  15    8   16 1
  16    8   34 1
  17    9   10 ar
  18    9   14 ar
  19   10   11 ar
  20   10   35 1
  21   11   12 ar
  22   11   36 1
  23   12   13 ar
  24   12   20 1
  25   13   14 ar
  26   13   26 1
  27   14   37 1
  28   15   16 1
  29   16   17 2
  30   17   18 1
  31   18   19 1
  32   19   21 1
  33   19   38 1
  34   19   39 1
  35   21   22 1
  36   21   40 1
  37   21   41 1
  38   22   23 am
  39   22   42 1
  40   23   24 1
  41   23   25 2
  42   24   43 1
  43   24   44 1
  44   24   45 1
  45   26   27 1
  46   26   28 1
  47   26   29 1

#	End of record

