#	Name: ASD00451038
#	Creating user name:	WinNT
#	Creation time:	15. 06. 2019 18:36

#	Modifying user name:	WinNT
#	Modification time:	15. 06. 2019 18:36

#	Program:	/corina/corina34_cracker 3.40 0067  02.08.2006

@<TRIPOS>MOLECULE
ASD00451038
  55   59    0    0    0
SMALL
NO_CHARGES


@<TRIPOS>ATOM
   1 C1            -0.0128     1.4249     0.0572 C.ar    
   2 C2            -0.0078     0.0479     0.0425 C.ar    
   3 C3             1.2104     2.1276     0.0776 C.ar    
   4 N4            -1.2246     2.1236     0.0461 N.am    
   5 C5             1.1900    -0.6612     0.0476 C.ar    
   6 C6             1.2422     3.5314     0.0935 C.ar    
   7 C7             2.4285     1.4051     0.0828 C.ar    
   8 C8             2.3989    -0.0044     0.0678 C.ar    
   9 C9             2.4398     4.1784     0.1135 C.ar    
  10 C10            3.6452     2.1064     0.1036 C.ar    
  11 O11            3.5594    -0.7113     0.0734 O.3     
  12 C12            3.6384     3.4676     0.1181 C.ar    
  13 C13            4.1966    -0.8814     1.2603 C.ar    
  14 C14            5.4438    -1.4980     1.3215 C.ar    
  15 C15            3.6237    -0.4388     2.4506 C.ar    
  16 C16            6.0684    -1.6555     2.5591 C.ar    
  17 N17            6.2952    -2.0443     0.3633 N.am    
  18 C18            4.3021    -0.6298     3.6375 C.ar    
  19 N19            7.2791    -2.2919     2.3163 N.am    
  20 N20            5.4807    -1.2227     3.6644 N.ar    
  21 C21            7.3896    -2.5131     0.9932 C.2     
  22 O22            8.3338    -3.0546     0.4491 O.2     
  23 C23           -2.2784     1.6342    -0.6369 C.2     
  24 O24           -2.1493     0.6380    -1.3221 O.2     
  25 N25           -3.4754     2.2489    -0.5604 N.am    
  26 C26           -4.5987     1.6741    -1.1704 C.ar    
  27 C27           -4.6439     0.3066    -1.3956 C.ar    
  28 C28           -5.7530    -0.2582    -1.9976 C.ar    
  29 C29           -6.8181     0.5372    -2.3766 C.ar    
  30 C30           -6.7798     1.9018    -2.1556 C.ar    
  31 C31           -5.6752     2.4744    -1.5471 C.ar    
  32 C32            6.0435    -2.0996    -1.0788 C.3     
  33 O33           -5.6363     3.8160    -1.3288 O.3     
  34 C34           -6.7701     4.5755    -1.7527 C.3     
  35 F35           -7.9126     4.1192    -1.0864 F       
  36 F36           -6.5646     5.9266    -1.4540 F       
  37 F37           -6.9434     4.4240    -3.1326 F       
  38 H38           -0.9450    -0.4886     0.0272 H       
  39 H39           -1.3065     2.9604     0.5299 H       
  40 H40            1.1702    -1.7410     0.0358 H       
  41 H41            0.3209     4.0950     0.0894 H       
  42 H42            2.4613     5.2581     0.1256 H       
  43 H43            4.5817     1.5683     0.1081 H       
  44 H44            4.5754     4.0044     0.1337 H       
  45 H45            2.6599     0.0485     2.4448 H       
  46 H46            3.8601    -0.2873     4.5615 H       
  47 H47            7.9351    -2.5361     2.9878 H       
  48 H48           -3.5595     3.0892    -0.0831 H       
  49 H49           -3.8129    -0.3171    -1.1011 H       
  50 H50           -5.7871    -1.3234    -2.1724 H       
  51 H51           -7.6823     0.0918    -2.8468 H       
  52 H52           -7.6133     2.5206    -2.4536 H       
  53 H53            6.4380    -1.1999    -1.5513 H       
  54 H54            6.5351    -2.9765    -1.5001 H       
  55 H55            4.9703    -2.1634    -1.2582 H       
@<TRIPOS>BOND
   1    1    2 ar
   2    1    3 ar
   3    1    4 1
   4    2    5 ar
   5    2   38 1
   6    3    6 ar
   7    3    7 ar
   8    4   23 am
   9    4   39 1
  10    5    8 ar
  11    5   40 1
  12    6    9 ar
  13    6   41 1
  14    7    8 ar
  15    7   10 ar
  16    8   11 1
  17    9   12 ar
  18    9   42 1
  19   10   12 ar
  20   10   43 1
  21   11   13 1
  22   12   44 1
  23   13   15 ar
  24   13   14 ar
  25   14   16 ar
  26   14   17 1
  27   15   18 ar
  28   15   45 1
  29   16   19 1
  30   16   20 ar
  31   17   21 am
  32   17   32 1
  33   18   20 ar
  34   18   46 1
  35   19   21 am
  36   19   47 1
  37   21   22 2
  38   23   24 2
  39   23   25 am
  40   25   26 1
  41   25   48 1
  42   26   27 ar
  43   26   31 ar
  44   27   28 ar
  45   27   49 1
  46   28   29 ar
  47   28   50 1
  48   29   30 ar
  49   29   51 1
  50   30   31 ar
  51   30   52 1
  52   31   33 1
  53   32   53 1
  54   32   54 1
  55   32   55 1
  56   33   34 1
  57   34   35 1
  58   34   36 1
  59   34   37 1

#	End of record

