#	Name: ASD03240987
#	Creating user name:	WinNT
#	Creation time:	15. 06. 2019 20:35

#	Modifying user name:	WinNT
#	Modification time:	15. 06. 2019 20:35

#	Program:	/corina/corina34_cracker 3.40 0067  02.08.2006

@<TRIPOS>MOLECULE
ASD03240987
  59   64    0    0    0
SMALL
NO_CHARGES


@<TRIPOS>ATOM
   1 C1             0.0021    -0.0041     0.0020 C.1     
   2 C2            -0.0173     1.4278     0.0099 C.ar    
   3 C3             1.1796     2.1432     0.0023 C.ar    
   4 C4             1.1516     3.5341     0.0101 C.ar    
   5 C5            -0.0716     4.2049     0.0254 C.ar    
   6 C6            -1.2543     3.4920     0.0333 C.ar    
   7 C7            -1.2353     2.1116     0.0194 C.ar    
   8 N8             0.0175    -1.1399    -0.0042 N.1     
   9 N9             5.9027     6.5176    -0.1275 N.pl3   
  10 C10            6.9061     6.2350     0.7594 C.2     
  11 N11            6.7935     5.2561     1.6747 N.2     
  12 C12            5.7187     4.5168     1.7711 C.2     
  13 C13            4.6049     4.7604     0.8569 C.ar    
  14 C14            3.4300     4.0028     0.9105 C.ar    
  15 C15            2.4199     4.3023     0.0026 C.ar    
  16 C16            2.6170     5.3444    -0.9244 C.ar    
  17 N17            3.7439     6.0400    -0.9455 N.ar    
  18 C18            4.7295     5.7884    -0.1015 C.ar    
  19 C19            7.9396     7.1219     0.4900 C.2     
  20 C20            7.5377     7.9317    -0.5647 C.2     
  21 N21            6.3323     7.5750    -0.9385 N.2     
  22 C22            8.3554     9.0369    -1.1819 C.3     
  23 C23            1.5449     5.6677    -1.8935 C.ar    
  24 C24            1.3293     6.9893    -2.2843 C.ar    
  25 C25            0.3292     7.2841    -3.1879 C.ar    
  26 C26           -0.4591     6.2721    -3.7061 C.ar    
  27 C27           -0.2503     4.9594    -3.3224 C.ar    
  28 C28            0.7502     4.6512    -2.4236 C.ar    
  29 C29           -1.5501     6.6011    -4.6923 C.3     
  30 C30           -1.8353     5.4708    -5.6952 C.3     
  31 C31           -3.3266     5.8084    -5.5316 C.3     
  32 C32           -2.9675     6.3657    -4.1441 C.3     
  33 C33           -3.8247     6.8741    -6.5100 C.3     
  34 O34           -4.1724     4.6575    -5.4849 O.3     
  35 N35           -1.3738     7.9163    -5.3224 N.3     
  36 H36            2.1242     1.6198    -0.0092 H       
  37 H37           -0.0936     5.2847     0.0315 H       
  38 H38           -2.1982     4.0166     0.0456 H       
  39 H39           -2.1635     1.5595     0.0204 H       
  40 H40            5.6555     3.7370     2.5156 H       
  41 H41            3.3112     3.2098     1.6340 H       
  42 H42            8.8860     7.1732     1.0078 H       
  43 H43            8.9544     8.6333    -1.9982 H       
  44 H44            7.6900     9.8096    -1.5669 H       
  45 H45            9.0133     9.4672    -0.4268 H       
  46 H46            1.9438     7.7801    -1.8801 H       
  47 H47            0.1611     8.3069    -3.4910 H       
  48 H48           -0.8689     4.1738    -3.7305 H       
  49 H49            0.9152     3.6256    -2.1283 H       
  50 H50           -1.4503     5.6675    -6.6958 H       
  51 H51           -1.5686     4.4809    -5.3250 H       
  52 H52           -3.0103     5.6205    -3.3498 H       
  53 H53           -3.4965     7.2849    -3.8924 H       
  54 H54           -3.6806     6.5245    -7.5323 H       
  55 H55           -4.8844     7.0605    -6.3357 H       
  56 H56           -3.2639     7.7965    -6.3590 H       
  57 H57           -5.1116     4.8635    -5.3821 H       
  58 H58           -1.1892     8.6270    -4.6303 H       
  59 H59           -0.6424     7.8894    -6.0170 H       
@<TRIPOS>BOND
   1    1    2 1
   2    1    8 3
   3    2    3 ar
   4    2    7 ar
   5    3    4 ar
   6    3   36 1
   7    4    5 ar
   8    4   15 1
   9    5    6 ar
  10    5   37 1
  11    6    7 ar
  12    6   38 1
  13    7   39 1
  14    9   10 1
  15    9   18 1
  16    9   21 1
  17   10   11 1
  18   10   19 2
  19   11   12 2
  20   12   13 1
  21   12   40 1
  22   13   14 ar
  23   13   18 ar
  24   14   15 ar
  25   14   41 1
  26   15   16 ar
  27   16   17 ar
  28   16   23 1
  29   17   18 ar
  30   19   20 1
  31   19   42 1
  32   20   21 2
  33   20   22 1
  34   22   43 1
  35   22   44 1
  36   22   45 1
  37   23   24 ar
  38   23   28 ar
  39   24   25 ar
  40   24   46 1
  41   25   26 ar
  42   25   47 1
  43   26   27 ar
  44   26   29 1
  45   27   28 ar
  46   27   48 1
  47   28   49 1
  48   29   30 1
  49   29   32 1
  50   29   35 1
  51   30   31 1
  52   30   50 1
  53   30   51 1
  54   31   32 1
  55   31   33 1
  56   31   34 1
  57   32   52 1
  58   32   53 1
  59   33   54 1
  60   33   55 1
  61   33   56 1
  62   34   57 1
  63   35   58 1
  64   35   59 1

#	End of record

