#	Name: ASD01180020
#	Creating user name:	WinNT
#	Creation time:	15. 06. 2019 19:06

#	Modifying user name:	WinNT
#	Modification time:	15. 06. 2019 19:06

#	Program:	/corina/corina34_cracker 3.40 0067  02.08.2006

@<TRIPOS>MOLECULE
ASD01180020
  24   25    0    0    0
SMALL
NO_CHARGES


@<TRIPOS>ATOM
   1 N1             0.1288     1.1918     0.6727 N.ar    
   2 C2             0.1303    -0.0907     0.4004 C.ar    
   3 C3             1.2066    -0.6747    -0.2908 C.ar    
   4 N4             2.2328     0.0598    -0.6758 N.ar    
   5 C5             2.2472     1.3713    -0.4058 C.ar    
   6 C6             3.3252     2.1794    -0.8030 C.ar    
   7 C7             3.3136     3.5112    -0.5156 C.ar    
   8 C8             2.2432     4.0867     0.1700 C.ar    
   9 C9             1.1817     3.3323     0.5699 C.ar    
  10 C10            1.1601     1.9558     0.2906 C.ar    
  11 S11           -1.2287    -1.0919     0.9057 S.o2    
  12 O12           -0.6411    -2.3463     1.2227 O.2     
  13 O13           -1.8836    -0.3173     1.9009 O.2     
  14 C14           -2.2646    -1.2306    -0.5769 C.3     
  15 Cl15           2.2647     5.7873     0.5185 Cl      
  16 Cl16           4.6487     4.5053    -1.0084 Cl      
  17 N17            1.1896    -2.0334    -0.5695 N.pl3   
  18 H18            4.1602     1.7467    -1.3340 H       
  19 H19            0.3600     3.7908     1.1001 H       
  20 H20           -1.6915    -1.6970    -1.3782 H       
  21 H21           -3.1394    -1.8412    -0.3531 H       
  22 H22           -2.5855    -0.2372    -0.8902 H       
  23 H23            0.3625    -2.5341    -0.4919 H       
  24 H24            2.0049    -2.4828    -0.8419 H       
@<TRIPOS>BOND
   1    1    2 ar
   2    1   10 ar
   3    2    3 ar
   4    2   11 1
   5    3    4 ar
   6    3   17 1
   7    4    5 ar
   8    5    6 ar
   9    5   10 ar
  10    6    7 ar
  11    6   18 1
  12    7    8 ar
  13    7   16 1
  14    8    9 ar
  15    8   15 1
  16    9   10 ar
  17    9   19 1
  18   11   12 2
  19   11   13 2
  20   11   14 1
  21   14   20 1
  22   14   21 1
  23   14   22 1
  24   17   23 1
  25   17   24 1

#	End of record

