#	Name: ASD04882229
#	Creating user name:	WinNT
#	Creation time:	15. 06. 2019 20:54

#	Modifying user name:	WinNT
#	Modification time:	15. 06. 2019 20:54

#	Program:	/corina/corina34_cracker 3.40 0067  02.08.2006

@<TRIPOS>MOLECULE
ASD04882229
  75   80    0    0    0
SMALL
NO_CHARGES


@<TRIPOS>ATOM
   1 N1            -0.0501     1.4140     0.5854 N.am    
   2 C2             0.0475     0.0447     0.3060 C.ar    
   3 C3            -1.1057    -0.6990     0.0409 C.ar    
   4 C4            -1.0104    -2.0579    -0.2365 C.ar    
   5 C5             0.2202    -2.6762    -0.2511 C.ar    
   6 C6             1.3775    -1.9385     0.0136 C.ar    
   7 C7             1.2849    -0.5708     0.2867 C.ar    
   8 N8            -2.3521    -0.0780     0.0550 N.3     
   9 C9            -2.6994     0.3750     1.4092 C.3     
  10 C10           -3.3904    -0.9688    -0.4817 C.3     
  11 C11           -4.7266    -0.2236    -0.5230 C.3     
  12 N12           -5.0739     0.2294     0.8312 N.3     
  13 C13           -4.0356     1.1202     1.3679 C.3     
  14 C14           -6.3240     0.8523     0.8454 C.ar    
  15 C15            2.6955    -2.6011    -0.0017 C.2     
  16 O16            3.6493    -2.0459    -0.5122 O.2     
  17 C17            0.8144     1.9898     1.4442 C.2     
  18 O18            1.6193     1.3051     2.0481 O.2     
  19 C19           -6.5467     1.9843     0.0713 C.ar    
  20 C20           -7.3490     0.3380     1.6291 C.ar    
  21 C21           -8.5840     0.9565     1.6408 C.ar    
  22 C22           -8.8006     2.0859     0.8733 C.ar    
  23 C23           -7.7837     2.5976     0.0878 C.ar    
  24 C24            0.7852     3.4412     1.6510 C.2     
  25 N25            2.8424    -3.8219     0.5501 N.am    
  26 C26           -7.1140    -0.8935     2.4652 C.3     
  27 C27            1.6003     4.1491     2.4873 C.2     
  28 C28            1.2259     5.4968     2.3702 C.2     
  29 C29            0.2116     5.5519     1.4791 C.2     
  30 O30           -0.0477     4.3118     1.0441 O.3     
  31 C31            4.1662    -4.4552     0.6238 C.3     
  32 C32            1.6825    -4.5413     1.0944 C.3     
  33 C33            1.9826    -4.9319     2.5459 C.3     
  34 C34            3.2992    -5.6973     2.6037 C.3     
  35 C35            4.4440    -4.8465     2.0796 C.3     
  36 C36            3.5910    -6.1467     4.0476 C.3     
  37 C37            3.1901    -7.0087     1.8045 C.3     
  38 O38            3.9405    -7.9728     2.5769 O.3     
  39 C39            3.6209    -7.6897     3.9571 C.3     
  40 H40           -0.7373     1.9485     0.1576 H       
  41 H41           -1.9033    -2.6301    -0.4406 H       
  42 H42            0.2910    -3.7320    -0.4669 H       
  43 H43            2.1774     0.0018     0.4915 H       
  44 H44           -2.7842    -0.4873     2.0706 H       
  45 H45           -1.9218     1.0429     1.7798 H       
  46 H46           -3.1166    -1.2806    -1.4896 H       
  47 H47           -3.4830    -1.8463     0.1582 H       
  48 H48           -4.6418     0.6387    -1.1843 H       
  49 H49           -5.5042    -0.8915    -0.8936 H       
  50 H50           -4.3094     1.4319     2.3759 H       
  51 H51           -3.9429     1.9977     0.7281 H       
  52 H52           -5.7531     2.3843    -0.5423 H       
  53 H53           -9.3814     0.5571     2.2500 H       
  54 H54           -9.7675     2.5671     0.8838 H       
  55 H55           -7.9563     3.4799    -0.5106 H       
  56 H56           -6.7538    -0.6000     3.4512 H       
  57 H57           -8.0480    -1.4458     2.5691 H       
  58 H58           -6.3702    -1.5256     1.9800 H       
  59 H59            2.3816     3.7495     3.1167 H       
  60 H60            1.6655     6.3326     2.8942 H       
  61 H61           -0.3028     6.4485     1.1662 H       
  62 H62            4.1806    -5.3465    -0.0034 H       
  63 H63            4.9268    -3.7530     0.2825 H       
  64 H64            0.8046    -3.8960     1.0635 H       
  65 H65            1.4996    -5.4395     0.5045 H       
  66 H66            2.0584    -4.0319     3.1561 H       
  67 H67            1.1788    -5.5622     2.9262 H       
  68 H68            5.3718    -5.4166     2.1270 H       
  69 H69            4.5379    -3.9481     2.6896 H       
  70 H70            4.5562    -5.7642     4.3796 H       
  71 H71            2.7971    -5.8181     4.7183 H       
  72 H72            2.1480    -7.3171     1.7213 H       
  73 H73            3.6316    -6.8883     0.8152 H       
  74 H74            4.3903    -8.0936     4.6152 H       
  75 H75            2.6457    -8.1038     4.2133 H       
@<TRIPOS>BOND
   1    1    2 1
   2    1   17 am
   3    1   40 1
   4    2    3 ar
   5    2    7 ar
   6    3    4 ar
   7    3    8 1
   8    4    5 ar
   9    4   41 1
  10    5    6 ar
  11    5   42 1
  12    6    7 ar
  13    6   15 1
  14    7   43 1
  15    8    9 1
  16    8   10 1
  17    9   13 1
  18    9   44 1
  19    9   45 1
  20   10   11 1
  21   10   46 1
  22   10   47 1
  23   11   12 1
  24   11   48 1
  25   11   49 1
  26   12   13 1
  27   12   14 1
  28   13   50 1
  29   13   51 1
  30   14   19 ar
  31   14   20 ar
  32   15   16 2
  33   15   25 am
  34   17   18 2
  35   17   24 1
  36   19   23 ar
  37   19   52 1
  38   20   21 ar
  39   20   26 1
  40   21   22 ar
  41   21   53 1
  42   22   23 ar
  43   22   54 1
  44   23   55 1
  45   24   27 2
  46   24   30 1
  47   25   31 1
  48   25   32 1
  49   26   56 1
  50   26   57 1
  51   26   58 1
  52   27   28 1
  53   27   59 1
  54   28   29 2
  55   28   60 1
  56   29   30 1
  57   29   61 1
  58   31   35 1
  59   31   62 1
  60   31   63 1
  61   32   33 1
  62   32   64 1
  63   32   65 1
  64   33   34 1
  65   33   66 1
  66   33   67 1
  67   34   35 1
  68   34   36 1
  69   34   37 1
  70   35   68 1
  71   35   69 1
  72   36   39 1
  73   36   70 1
  74   36   71 1
  75   37   38 1
  76   37   72 1
  77   37   73 1
  78   38   39 1
  79   39   74 1
  80   39   75 1

#	End of record

