#	Name: ASD01180014
#	Creating user name:	WinNT
#	Creation time:	15. 06. 2019 19:06

#	Modifying user name:	WinNT
#	Modification time:	15. 06. 2019 19:06

#	Program:	/corina/corina34_cracker 3.40 0067  02.08.2006

@<TRIPOS>MOLECULE
ASD01180014
  36   37    0    0    0
SMALL
NO_CHARGES


@<TRIPOS>ATOM
   1 N1            -0.0157     1.3093     0.0092 N.ar    
   2 C2             0.0021    -0.0041     0.0020 C.ar    
   3 C3             1.2121    -0.7010    -0.0128 C.ar    
   4 N4             2.3571    -0.0573    -0.0198 N.ar    
   5 C5             2.3657     1.2801    -0.0131 C.ar    
   6 C6             3.5740     1.9978    -0.0198 C.ar    
   7 C7             3.5506     3.3594    -0.0123 C.ar    
   8 C8             2.3408     4.0562     0.0024 C.ar    
   9 C9             1.1513     3.3932     0.0092 C.ar    
  10 C10            1.1368     1.9880     0.0019 C.ar    
  11 C11            1.2042    -2.2080    -0.0204 C.3     
  12 F12            1.1894    -2.6676    -1.3416 F       
  13 F13            2.3501    -2.6836     0.6260 F       
  14 F14            0.0657    -2.6717     0.6474 F       
  15 P15           -1.5622    -0.9226     0.0120 P.3     
  16 O16           -1.9742    -1.1798     1.4100 O.2     
  17 Cl17           2.3531     5.7921     0.0127 Cl      
  18 Cl18           5.0460     4.2411    -0.0206 Cl      
  19 O19           -2.6977    -0.0566    -0.7315 O.3     
  20 C20           -4.0665    -0.4617    -0.7980 C.3     
  21 C21           -4.8709     0.5843    -1.5724 C.3     
  22 O22           -1.3667    -2.3238    -0.7564 O.3     
  23 C23           -2.3881    -3.3205    -0.8294 C.3     
  24 C24           -1.8742    -4.5198    -1.6285 C.3     
  25 H25            4.5171     1.4718    -0.0304 H       
  26 H26            0.2230     3.9450     0.0209 H       
  27 H27           -4.1365    -1.4234    -1.3064 H       
  28 H28           -4.4675    -0.5543     0.2113 H       
  29 H29           -5.9149     0.2753    -1.6232 H       
  30 H30           -4.8008     1.5460    -1.0641 H       
  31 H31           -4.4698     0.6769    -2.5818 H       
  32 H32           -2.6547    -3.6420     0.1774 H       
  33 H33           -3.2667    -2.9048    -1.3227 H       
  34 H34           -0.9955    -4.9354    -1.1352 H       
  35 H35           -2.6533    -5.2800    -1.6842 H       
  36 H36           -1.6076    -4.1982    -2.6353 H       
@<TRIPOS>BOND
   1    1    2 ar
   2    1   10 ar
   3    2    3 ar
   4    2   15 1
   5    3    4 ar
   6    3   11 1
   7    4    5 ar
   8    5    6 ar
   9    5   10 ar
  10    6    7 ar
  11    6   25 1
  12    7    8 ar
  13    7   18 1
  14    8    9 ar
  15    8   17 1
  16    9   10 ar
  17    9   26 1
  18   11   12 1
  19   11   13 1
  20   11   14 1
  21   15   16 2
  22   15   19 1
  23   15   22 1
  24   19   20 1
  25   20   21 1
  26   20   27 1
  27   20   28 1
  28   21   29 1
  29   21   30 1
  30   21   31 1
  31   22   23 1
  32   23   24 1
  33   23   32 1
  34   23   33 1
  35   24   34 1
  36   24   35 1
  37   24   36 1

#	End of record

