#	Name: ASD01881553
#	Creating user name:	WinNT
#	Creation time:	15. 06. 2019 19:42

#	Modifying user name:	WinNT
#	Modification time:	15. 06. 2019 19:42

#	Program:	/corina/corina34_cracker 3.40 0067  02.08.2006

@<TRIPOS>MOLECULE
ASD01881553
  58   62    0    0    0
SMALL
NO_CHARGES


@<TRIPOS>ATOM
   1 C1            -0.0169     1.3914     0.0097 C.ar    
   2 C2             0.0021    -0.0041     0.0020 C.ar    
   3 C3            -1.1961    -0.6962     0.0102 C.ar    
   4 C4            -2.3789     0.0321     0.0259 C.ar    
   5 C5            -2.3285     1.4303     0.0329 C.ar    
   6 N6            -1.1655     2.0581     0.0298 N.ar    
   7 N7            -3.7234    -0.3249     0.0373 N.am    
   8 C8            -4.4585     0.8033     0.0507 C.2     
   9 N9            -3.6445     1.8752     0.0483 N.am    
  10 C10           -4.2490    -1.6923     0.0348 C.3     
  11 C11            1.2582     2.1372     0.0015 C.2     
  12 C12           -4.4176    -2.1766     1.4763 C.3     
  13 C13           -5.3934    -1.2566     2.2126 C.3     
  14 C14           -4.9665    -3.6048     1.4736 C.3     
  15 C15           -4.0742     3.2757     0.0601 C.3     
  16 O16           -5.6744     0.8471     0.0630 O.2     
  17 C17           -3.0613    -2.1529     2.1841 C.3     
  18 C18            2.4634     1.5319    -0.0132 C.2     
  19 C19            3.6356     2.5082    -0.0160 C.3     
  20 N20            3.4443     3.3867     1.1613 N.am    
  21 C21            2.1420     4.0770     1.2482 C.3     
  22 C22            1.3296     3.6587     0.0025 C.3     
  23 C23            4.4013     3.5460     2.0969 C.2     
  24 C24            4.1620     4.4372     3.2583 C.2     
  25 O25            5.4599     2.9597     1.9891 O.2     
  26 C26            5.0623     4.7116     4.3252 C.2     
  27 C27            4.3783     5.5712     5.1153 C.2     
  28 O28            3.1862     5.7624     4.5337 O.3     
  29 N29            3.0813     5.1348     3.5056 N.2     
  30 C30            3.4802     3.3938    -1.2632 C.3     
  31 C31            2.1179     4.0876    -1.2434 C.3     
  32 H32            0.9410    -0.5376    -0.0105 H       
  33 H33           -1.2113    -1.7760     0.0042 H       
  34 H34           -5.2152    -1.7093    -0.4695 H       
  35 H35           -3.5539    -2.3478    -0.4898 H       
  36 H36           -6.3595    -1.2735     1.7083 H       
  37 H37           -5.5134    -1.6016     3.2396 H       
  38 H38           -5.0023    -0.2391     2.2145 H       
  39 H39           -4.2713    -4.2602     0.9490 H       
  40 H40           -5.0865    -3.9498     2.5006 H       
  41 H41           -5.9327    -3.6217     0.9693 H       
  42 H42           -5.1631     3.3217     0.0707 H       
  43 H43           -3.6810     3.7689     0.9491 H       
  44 H44           -3.6980     3.7787    -0.8308 H       
  45 H45           -2.6703    -1.1354     2.1860 H       
  46 H46           -3.1814    -2.4979     3.2111 H       
  47 H47           -2.3662    -2.8083     1.6595 H       
  48 H48            2.5868     0.4590    -0.0219 H       
  49 H49            4.5955     1.9927     0.0115 H       
  50 H50            1.6195     3.7731     2.1552 H       
  51 H51            2.2921     5.1566     1.2479 H       
  52 H52            0.3319     4.0973     0.0201 H       
  53 H53            6.0596     4.3237     4.4708 H       
  54 H54            4.7255     6.0162     6.0361 H       
  55 H55            4.2683     4.1468    -1.2735 H       
  56 H56            3.5582     2.7765    -2.1581 H       
  57 H57            1.5587     3.8121    -2.1375 H       
  58 H58            2.2602     5.1681    -1.2269 H       
@<TRIPOS>BOND
   1    1    2 ar
   2    1   11 1
   3    1    6 ar
   4    2    3 ar
   5    2   32 1
   6    3    4 ar
   7    3   33 1
   8    4    5 ar
   9    4    7 1
  10    5    6 ar
  11    5    9 1
  12    7    8 am
  13    7   10 1
  14    8    9 am
  15    8   16 2
  16    9   15 1
  17   10   12 1
  18   10   34 1
  19   10   35 1
  20   11   18 2
  21   11   22 1
  22   12   13 1
  23   12   17 1
  24   12   14 1
  25   13   36 1
  26   13   37 1
  27   13   38 1
  28   14   39 1
  29   14   40 1
  30   14   41 1
  31   15   42 1
  32   15   43 1
  33   15   44 1
  34   17   45 1
  35   17   46 1
  36   17   47 1
  37   18   19 1
  38   18   48 1
  39   19   20 1
  40   19   30 1
  41   19   49 1
  42   20   21 1
  43   20   23 am
  44   21   22 1
  45   21   50 1
  46   21   51 1
  47   22   31 1
  48   22   52 1
  49   23   24 1
  50   23   25 2
  51   24   26 1
  52   24   29 2
  53   26   27 2
  54   26   53 1
  55   27   28 1
  56   27   54 1
  57   28   29 1
  58   30   31 1
  59   30   55 1
  60   30   56 1
  61   31   57 1
  62   31   58 1

#	End of record

