#	Name: ASD09740398
#	Creating user name:	WinNT
#	Creation time:	15. 06. 2019 21:23

#	Modifying user name:	WinNT
#	Modification time:	15. 06. 2019 21:23

#	Program:	/corina/corina34_cracker 3.40 0067  02.08.2006

@<TRIPOS>MOLECULE
ASD09740398
  76   80    0    0    0
SMALL
NO_CHARGES


@<TRIPOS>ATOM
   1 N1            -0.0151     1.3053     0.0121 N.2     
   2 C2             0.0028    -0.0042     0.0021 C.2     
   3 C3             1.1360     1.9169    -0.0038 C.2     
   4 S4             2.4286     0.7206    -0.0357 S.3     
   5 C5             1.2290    -0.5707    -0.0239 C.2     
   6 C6             1.3265     3.3822     0.0030 C.ar    
   7 C7             0.2206     4.2279     0.0287 C.ar    
   8 C8             2.6175     3.9196    -0.0106 C.ar    
   9 C9             2.8009     5.2852    -0.0040 C.ar    
  10 C10            1.7059     6.1376     0.0163 C.ar    
  11 C11            0.4063     5.6097     0.0349 C.ar    
  12 O12            1.8923     7.4813     0.0232 O.3     
  13 C13            3.2384     7.9489     0.1299 C.3     
  14 C14            3.8769     7.9868    -1.2600 C.3     
  15 C15            3.2435     9.3555     0.7320 C.3     
  16 C16           -0.7254     6.4869     0.0558 C.1     
  17 N17           -1.6232     7.1827     0.0724 N.1     
  18 C18            1.5148    -2.0206    -0.0391 C.ar    
  19 C19            2.3970    -2.5504    -0.9858 C.ar    
  20 C20            2.6598    -3.9044    -0.9943 C.ar    
  21 C21            2.0489    -4.7337    -0.0659 C.ar    
  22 C22            1.1754    -4.2150     0.8713 C.ar    
  23 C23            0.9094    -2.8614     0.8946 C.ar    
  24 C24            3.1786    -1.8686    -2.0880 C.3     
  25 C25            4.2759    -2.8778    -2.4881 C.3     
  26 C26            3.6373    -4.2294    -2.1039 C.3     
  27 N27            4.6631    -5.1576    -1.6219 N.am    
  28 S28            4.5345    -6.7760    -1.9485 S.o2    
  29 C29            4.6866    -6.8872    -3.7527 C.3     
  30 O30            5.6690    -7.3523    -1.3160 O.2     
  31 O31            3.2167    -7.1129    -1.5374 O.2     
  32 C32            4.5826    -8.3515    -4.1840 C.3     
  33 N33            4.7057    -8.4415    -5.6450 N.3     
  34 C34            4.8484    -9.8380    -6.0761 C.3     
  35 C35            5.8212    -7.6192    -6.1308 C.3     
  36 C36            5.8294    -7.6211    -7.6612 C.3     
  37 C37            5.9746    -9.0600    -8.1642 C.3     
  38 C38            4.8276    -9.9061    -7.6048 C.3     
  39 C39            5.9223    -9.0748    -9.6932 C.3     
  40 O40            6.1740   -10.3998   -10.1656 O.3     
  41 H41           -0.9029    -0.5924     0.0141 H       
  42 H42           -0.7773     3.8151     0.0433 H       
  43 H43            3.4739     3.2618    -0.0261 H       
  44 H44            3.8006     5.6937    -0.0142 H       
  45 H45            3.8067     7.2766     0.7726 H       
  46 H46            3.3086     8.6592    -1.9027 H       
  47 H47            4.9037     8.3435    -1.1785 H       
  48 H48            3.8733     6.9848    -1.6889 H       
  49 H49            2.7886     9.3285     1.7222 H       
  50 H50            4.2702     9.7122     0.8134 H       
  51 H51            2.6751    10.0279     0.0893 H       
  52 H52            2.2572    -5.7934    -0.0753 H       
  53 H53            0.7045    -4.8696     1.5898 H       
  54 H54            0.2268    -2.4558     1.6268 H       
  55 H55            2.5295    -1.6589    -2.9381 H       
  56 H56            3.6287    -0.9473    -1.7184 H       
  57 H57            4.4723    -2.8325    -3.5593 H       
  58 H58            5.1886    -2.7043    -1.9179 H       
  59 H59            3.1116    -4.6558    -2.9582 H       
  60 H60            5.4176    -4.8243    -1.1116 H       
  61 H61            3.8871    -6.3129    -4.2208 H       
  62 H62            5.6516    -6.4852    -4.0614 H       
  63 H63            5.3820    -8.9258    -3.7159 H       
  64 H64            3.6176    -8.7535    -3.8752 H       
  65 H65            5.7934   -10.2371    -5.7076 H       
  66 H66            4.0242   -10.4279    -5.6750 H       
  67 H67            5.7035    -6.5976    -5.7695 H       
  68 H68            6.7617    -8.0287    -5.7621 H       
  69 H69            4.8948    -7.1990    -8.0306 H       
  70 H70            6.6667    -7.0234    -8.0213 H       
  71 H71            6.9270    -9.4692    -7.8273 H       
  72 H72            4.9492   -10.9410    -7.9246 H       
  73 H73            3.8772    -9.5200    -7.9733 H       
  74 H74            4.9361    -8.7516   -10.0262 H       
  75 H75            6.6794    -8.3980   -10.0892 H       
  76 H76            6.1563   -10.4840   -11.1288 H       
@<TRIPOS>BOND
   1    1    2 1
   2    1    3 2
   3    2    5 2
   4    2   41 1
   5    3    4 1
   6    3    6 1
   7    4    5 1
   8    5   18 1
   9    6    7 ar
  10    6    8 ar
  11    7   11 ar
  12    7   42 1
  13    8    9 ar
  14    8   43 1
  15    9   10 ar
  16    9   44 1
  17   10   11 ar
  18   10   12 1
  19   11   16 1
  20   12   13 1
  21   13   14 1
  22   13   15 1
  23   13   45 1
  24   14   46 1
  25   14   47 1
  26   14   48 1
  27   15   49 1
  28   15   50 1
  29   15   51 1
  30   16   17 3
  31   18   19 ar
  32   18   23 ar
  33   19   20 ar
  34   19   24 1
  35   20   21 ar
  36   20   26 1
  37   21   22 ar
  38   21   52 1
  39   22   23 ar
  40   22   53 1
  41   23   54 1
  42   24   25 1
  43   24   55 1
  44   24   56 1
  45   25   26 1
  46   25   57 1
  47   25   58 1
  48   26   27 1
  49   26   59 1
  50   27   28 am
  51   27   60 1
  52   28   29 1
  53   28   30 2
  54   28   31 2
  55   29   32 1
  56   29   61 1
  57   29   62 1
  58   32   33 1
  59   32   63 1
  60   32   64 1
  61   33   34 1
  62   33   35 1
  63   34   38 1
  64   34   65 1
  65   34   66 1
  66   35   36 1
  67   35   67 1
  68   35   68 1
  69   36   37 1
  70   36   69 1
  71   36   70 1
  72   37   38 1
  73   37   39 1
  74   37   71 1
  75   38   72 1
  76   38   73 1
  77   39   40 1
  78   39   74 1
  79   39   75 1
  80   40   76 1

#	End of record

