#	Name: ASD03740280
#	Creating user name:	WinNT
#	Creation time:	15. 06. 2019 20:47

#	Modifying user name:	WinNT
#	Modification time:	15. 06. 2019 20:47

#	Program:	/corina/corina34_cracker 3.40 0067  02.08.2006

@<TRIPOS>MOLECULE
ASD03740280
  70   73    0    0    0
SMALL
NO_CHARGES


@<TRIPOS>ATOM
   1 C1             1.4063     2.3642     2.6793 C.ar    
   2 C2             1.2538     1.0672     3.1261 C.ar    
   3 C3             2.1203     0.2402     1.0406 C.ar    
   4 C4             1.9178     2.6070     1.4100 C.ar    
   5 C5             1.6098     0.0003     2.3110 C.ar    
   6 C6             2.2702     1.5352     0.5975 C.ar    
   7 C7             1.9262     5.6630    -0.7192 C.2     
   8 C8             2.9186     6.4734    -1.1800 C.2     
   9 C9             2.2150     4.2624    -0.3581 C.2     
  10 C10            0.5651     6.2007    -0.5797 C.2     
  11 C11           -3.2676     7.6267    -1.4440 C.3     
  12 C12           -3.2840     7.6113     0.0946 C.3     
  13 C13           -1.7884     7.5243    -1.8699 C.3     
  14 C14           -1.8143     7.5001     0.5500 C.3     
  15 C15            1.4921     8.4534    -0.7007 C.3     
  16 C16           -1.0029     8.0573    -0.6460 C.3     
  17 C17            2.6014     7.8894    -1.5855 C.3     
  18 C18            3.8561     8.7525    -1.4379 C.3     
  19 C19            3.9622     6.9477    -6.2988 C.3     
  20 C20            1.6308     6.4137    -5.5766 C.3     
  21 C21           -1.2264    -1.6108     2.2662 C.3     
  22 C22            2.1447     7.9087    -3.0456 C.3     
  23 C23            3.2609     7.3595    -3.9364 C.3     
  24 C24            2.8042     7.3788    -5.3965 C.3     
  25 N25            2.0814     3.9150     0.9543 N.pl3   
  26 N26            2.5739     3.4647    -1.3142 N.am    
  27 N27            0.3639     7.5303    -0.6366 N.am    
  28 N28            1.4554    -1.3132     2.7681 N.am    
  29 O29           -0.3755     5.4470    -0.4139 O.2     
  30 O30            4.3238     1.7646    -0.9159 O.2     
  31 O31            2.1282     1.1109    -1.9244 O.2     
  32 O32           -0.1179    -0.7799     4.5465 O.2     
  33 O33            0.2689    -3.1286     3.8722 O.2     
  34 O34            4.1778     6.0116    -1.2724 O.3     
  35 S35            2.9099     1.8696    -1.0120 S.o2    
  36 S36            0.0594    -1.7638     3.5366 S.o2    
  37 H37            1.1238     3.1906     3.3146 H       
  38 H38            0.8567     0.8812     4.1130 H       
  39 H39            2.3986    -0.5862     0.4034 H       
  40 H40           -3.8276     6.7758    -1.8319 H       
  41 H41           -3.6987     8.5574    -1.8127 H       
  42 H42           -3.7232     8.5346     0.4726 H       
  43 H43           -3.8520     6.7530     0.4534 H       
  44 H44           -1.5208     6.4873    -2.0728 H       
  45 H45           -1.5994     8.1463    -2.7448 H       
  46 H46           -1.6442     8.1045     1.4410 H       
  47 H47           -1.5508     6.4593     0.7378 H       
  48 H48            1.8784     8.6085     0.3067 H       
  49 H49            1.1580     9.4083    -1.1063 H       
  50 H50           -0.9979     9.1473    -0.6350 H       
  51 H51            4.6455     8.3584    -2.0779 H       
  52 H52            3.6286     9.7774    -1.7309 H       
  53 H53            4.1881     8.7365    -0.3998 H       
  54 H54            3.6369     6.9615    -7.3390 H       
  55 H55            4.7982     7.6353    -6.1704 H       
  56 H56            4.2766     5.9393    -6.0297 H       
  57 H57            1.9451     5.4053    -5.3075 H       
  58 H58            0.8058     6.7208    -4.9338 H       
  59 H59            1.3054     6.4274    -6.6169 H       
  60 H60           -0.9913    -2.2696     1.4302 H       
  61 H61           -2.1908    -1.8912     2.6897 H       
  62 H62           -1.2696    -0.5797     1.9153 H       
  63 H63            1.2542     7.2900    -3.1560 H       
  64 H64            1.9148     8.9325    -3.3409 H       
  65 H65            4.1515     7.9783    -3.8260 H       
  66 H66            3.4909     6.3358    -3.6411 H       
  67 H67            2.4899     8.3872    -5.6656 H       
  68 H68            2.1013     4.6252     1.6146 H       
  69 H69            2.1660    -1.9599     2.6347 H       
  70 H70            4.3459     5.1234    -0.9292 H       
@<TRIPOS>BOND
   1    1    2 ar
   2    1    4 ar
   3    1   37 1
   4    2    5 ar
   5    2   38 1
   6    3    5 ar
   7    3    6 ar
   8    3   39 1
   9    4    6 ar
  10    4   25 1
  11    5   28 1
  12    6   35 1
  13    7    8 2
  14    7    9 1
  15    7   10 1
  16    8   17 1
  17    8   34 1
  18    9   25 1
  19    9   26 2
  20   10   27 am
  21   10   29 2
  22   11   12 1
  23   11   13 1
  24   11   40 1
  25   11   41 1
  26   12   14 1
  27   12   42 1
  28   12   43 1
  29   13   16 1
  30   13   44 1
  31   13   45 1
  32   14   16 1
  33   14   46 1
  34   14   47 1
  35   15   17 1
  36   15   27 1
  37   15   48 1
  38   15   49 1
  39   16   27 1
  40   16   50 1
  41   17   18 1
  42   17   22 1
  43   18   51 1
  44   18   52 1
  45   18   53 1
  46   19   24 1
  47   19   54 1
  48   19   55 1
  49   19   56 1
  50   20   24 1
  51   20   57 1
  52   20   58 1
  53   20   59 1
  54   21   36 1
  55   21   60 1
  56   21   61 1
  57   21   62 1
  58   22   23 1
  59   22   63 1
  60   22   64 1
  61   23   24 1
  62   23   65 1
  63   23   66 1
  64   24   67 1
  65   25   68 1
  66   26   35 am
  67   28   36 am
  68   28   69 1
  69   30   35 2
  70   31   35 2
  71   32   36 2
  72   33   36 2
  73   34   70 1

#	End of record

