#	Name: ASD00431153
#	Creating user name:	WinNT
#	Creation time:	15. 06. 2019 18:35

#	Modifying user name:	WinNT
#	Modification time:	15. 06. 2019 18:35

#	Program:	/corina/corina34_cracker 3.40 0067  02.08.2006

@<TRIPOS>MOLECULE
ASD00431153
  55   58    0    0    0
SMALL
NO_CHARGES


@<TRIPOS>ATOM
   1 C1            -0.4505     1.6569    -0.6878 C.2     
   2 C2            -0.6887     0.2255    -1.0945 C.3     
   3 O3             0.6594     2.0167    -0.3568 O.2     
   4 N4            -1.4698     2.5387    -0.6973 N.am    
   5 C5            -1.2383     3.9302    -0.3019 C.3     
   6 C6            -0.7325     4.7254    -1.5071 C.3     
   7 O7            -3.7497     4.3463    -0.3284 O.3     
   8 N8            -4.5973     4.9583     0.2790 N.2     
   9 C9            -4.0764     5.6326     1.2778 C.2     
  10 C10           -2.6767     5.3656     1.2461 C.2     
  11 C11           -2.5280     4.5331     0.1924 C.2     
  12 S12           -4.0699     7.3896     3.5714 S.3     
  13 C13           -5.6057     7.9959     4.0141 C.2     
  14 N14           -6.5181     7.5395     3.2123 N.2     
  15 C15           -6.1228     6.7338     2.2513 C.2     
  16 C16           -4.7949     6.4936     2.2389 C.2     
  17 O17           -5.8371     8.8324     5.0536 O.3     
  18 C18           -7.1284     9.1334     5.3556 C.ar    
  19 C19           -7.4109    10.1132     6.2980 C.ar    
  20 C20           -8.7233    10.4189     6.6041 C.ar    
  21 C21           -9.7579     9.7468     5.9697 C.ar    
  22 C22           -9.4753     8.7679     5.0288 C.ar    
  23 C23           -8.1633     8.4659     4.7182 C.ar    
  24 O24          -11.0493    10.0475     6.2708 O.3     
  25 C25          -11.2678    10.9864     7.3257 C.3     
  26 C26          -12.6386    11.6425     7.1487 C.3     
  27 C27          -12.8725    12.6478     8.2781 C.3     
  28 C28          -12.8242    11.9226     9.6245 C.3     
  29 C29          -11.4534    11.2665     9.8015 C.3     
  30 C30          -11.2195    10.2612     8.6721 C.3     
  31 Cl31          -6.1158    10.9535     7.0919 Cl      
  32 H32            0.2462    -0.3312    -1.0288 H       
  33 H33           -1.4263    -0.2233    -0.4294 H       
  34 H34           -1.0580     0.1957    -2.1196 H       
  35 H35           -2.3567     2.2519    -0.9659 H       
  36 H36           -0.4937     3.9628     0.4935 H       
  37 H37           -0.5602     5.7607    -1.2129 H       
  38 H38            0.2003     4.2893    -1.8646 H       
  39 H39           -1.4771     4.6928    -2.3024 H       
  40 H40           -1.9123     5.7418     1.9099 H       
  41 H41           -6.8032     6.3006     1.5330 H       
  42 H42           -8.9435    11.1806     7.3373 H       
  43 H43          -10.2810     8.2445     4.5357 H       
  44 H44           -7.9438     7.7069     3.9819 H       
  45 H45          -10.4922    11.7518     7.2973 H       
  46 H46          -12.6730    12.1592     6.1895 H       
  47 H47          -13.4141    10.8771     7.1772 H       
  48 H48          -12.0969    13.4132     8.2497 H       
  49 H49          -13.8490    13.1152     8.1520 H       
  50 H50          -12.9908    12.6388    10.4291 H       
  51 H51          -13.5997    11.1572     9.6529 H       
  52 H52          -10.6779    12.0319     9.7731 H       
  53 H53          -11.4190    10.7499    10.7607 H       
  54 H54          -11.9950     9.4958     8.7005 H       
  55 H55          -10.2429     9.7938     8.7982 H       
@<TRIPOS>BOND
   1    1    2 1
   2    1    3 2
   3    1    4 am
   4    2   32 1
   5    2   33 1
   6    2   34 1
   7    4    5 1
   8    4   35 1
   9    5    6 1
  10    5   11 1
  11    5   36 1
  12    6   37 1
  13    6   38 1
  14    6   39 1
  15    7    8 1
  16    7   11 1
  17    8    9 2
  18    9   10 1
  19    9   16 1
  20   10   11 2
  21   10   40 1
  22   12   13 1
  23   12   16 1
  24   13   14 2
  25   13   17 1
  26   14   15 1
  27   15   16 2
  28   15   41 1
  29   17   18 1
  30   18   19 ar
  31   18   23 ar
  32   19   20 ar
  33   19   31 1
  34   20   21 ar
  35   20   42 1
  36   21   22 ar
  37   21   24 1
  38   22   23 ar
  39   22   43 1
  40   23   44 1
  41   24   25 1
  42   25   26 1
  43   25   30 1
  44   25   45 1
  45   26   27 1
  46   26   46 1
  47   26   47 1
  48   27   28 1
  49   27   48 1
  50   27   49 1
  51   28   29 1
  52   28   50 1
  53   28   51 1
  54   29   30 1
  55   29   52 1
  56   29   53 1
  57   30   54 1
  58   30   55 1

#	End of record

