#	Name: ASD01812137
#	Creating user name:	WinNT
#	Creation time:	15. 06. 2019 19:28

#	Modifying user name:	WinNT
#	Modification time:	15. 06. 2019 19:28

#	Program:	/corina/corina34_cracker 3.40 0067  02.08.2006

@<TRIPOS>MOLECULE
ASD01812137
  59   63    0    0    0
SMALL
NO_CHARGES


@<TRIPOS>ATOM
   1 C1            -0.0168     1.3890     0.0097 C.ar    
   2 C2             0.0021    -0.0041     0.0020 C.ar    
   3 C3             1.1787    -0.6895    -0.0125 C.ar    
   4 C4             2.3941     0.0134    -0.0203 C.ar    
   5 C5             2.3756     1.4326    -0.0130 C.ar    
   6 C6             1.1407     2.1050     0.0025 C.ar    
   7 C7             3.6272    -0.6637    -0.0358 C.ar    
   8 C8             4.7900     0.0351    -0.0436 C.ar    
   9 C9             4.7882     1.4439    -0.0361 C.ar    
  10 C10            3.5864     2.1337    -0.0214 C.ar    
  11 C11            3.6565    -2.1704    -0.0431 C.3     
  12 C12            5.8880     2.4286    -0.0415 C.2     
  13 N13            5.3952     3.6790    -0.0301 N.am    
  14 C14            3.9298     3.6021    -0.0168 C.3     
  15 O15            7.0708     2.1485    -0.0540 O.2     
  16 C16            6.1876     4.9112    -0.0312 C.3     
  17 C17            7.0575     4.9570    -1.2890 C.3     
  18 C18            7.8851     6.2438    -1.2901 C.3     
  19 C19            8.7800     6.2758    -0.0495 C.3     
  20 C20            7.9100     6.2300     1.2082 C.3     
  21 C21            7.0825     4.9431     1.2094 C.3     
  22 O22            7.9330     3.8276    -1.3040 O.3     
  23 N23            3.4120    -2.6584    -1.4069 N.3     
  24 C24            3.6663    -4.1049    -1.5031 C.3     
  25 C25            3.1090    -4.6142    -2.8337 C.3     
  26 N26            3.5868    -3.7764    -3.9299 N.am    
  27 C27            4.0866    -2.5503    -3.7430 C.2     
  28 C28            4.2378    -1.9329    -2.3815 C.3     
  29 O29            4.4324    -1.9097    -4.7131 O.2     
  30 C30            3.5159    -4.3026    -5.2952 C.3     
  31 H31           -0.9637     1.9083     0.0170 H       
  32 H32           -0.9306    -0.5486     0.0080 H       
  33 H33            1.1770    -1.7695    -0.0175 H       
  34 H34            1.1108     3.1846     0.0079 H       
  35 H35            5.7302    -0.4960    -0.0555 H       
  36 H36            4.6326    -2.5165     0.2971 H       
  37 H37            2.8831    -2.5521     0.6235 H       
  38 H38            3.5210     4.0855    -0.9040 H       
  39 H39            3.5378     4.0759     0.8832 H       
  40 H40            5.5198     5.7726    -0.0198 H       
  41 H41            6.4200     4.9342    -2.1728 H       
  42 H42            8.5048     6.2765    -2.1862 H       
  43 H43            7.2173     7.1053    -1.2787 H       
  44 H44            9.4478     5.4144    -0.0610 H       
  45 H45            9.3695     7.1926    -0.0504 H       
  46 H46            8.5476     6.2528     2.0920 H       
  47 H47            7.2422     7.0914     1.2196 H       
  48 H48            6.4627     4.9105     2.1054 H       
  49 H49            7.7503     4.0817     1.1979 H       
  50 H50            8.5154     3.7917    -2.0751 H       
  51 H51            4.7395    -4.2910    -1.4611 H       
  52 H52            3.1715    -4.6187    -0.6790 H       
  53 H53            3.4373    -5.6412    -2.9939 H       
  54 H54            2.0198    -4.5850    -2.8045 H       
  55 H55            3.9204    -0.8908    -2.4195 H       
  56 H56            5.2833    -1.9802    -2.0768 H       
  57 H57            2.5573    -4.0339    -5.7389 H       
  58 H58            4.3238    -3.8776    -5.8909 H       
  59 H59            3.6140    -5.3880    -5.2718 H       
@<TRIPOS>BOND
   1    1    2 ar
   2    1    6 ar
   3    1   31 1
   4    2    3 ar
   5    2   32 1
   6    3    4 ar
   7    3   33 1
   8    4    5 ar
   9    4    7 ar
  10    5    6 ar
  11    5   10 ar
  12    6   34 1
  13    7    8 ar
  14    7   11 1
  15    8    9 ar
  16    8   35 1
  17    9   10 ar
  18    9   12 1
  19   10   14 1
  20   11   23 1
  21   11   36 1
  22   11   37 1
  23   12   13 am
  24   12   15 2
  25   13   14 1
  26   13   16 1
  27   14   38 1
  28   14   39 1
  29   16   17 1
  30   16   21 1
  31   16   40 1
  32   17   18 1
  33   17   22 1
  34   17   41 1
  35   18   19 1
  36   18   42 1
  37   18   43 1
  38   19   20 1
  39   19   44 1
  40   19   45 1
  41   20   21 1
  42   20   46 1
  43   20   47 1
  44   21   48 1
  45   21   49 1
  46   22   50 1
  47   23   24 1
  48   23   28 1
  49   24   25 1
  50   24   51 1
  51   24   52 1
  52   25   26 1
  53   25   53 1
  54   25   54 1
  55   26   30 1
  56   26   27 am
  57   27   28 1
  58   27   29 2
  59   28   55 1
  60   28   56 1
  61   30   57 1
  62   30   58 1
  63   30   59 1

#	End of record

