#	Name: ASD01913396
#	Creating user name:	WinNT
#	Creation time:	15. 06. 2019 20:01

#	Modifying user name:	WinNT
#	Modification time:	15. 06. 2019 20:01

#	Program:	/corina/corina34_cracker 3.40 0067  02.08.2006

@<TRIPOS>MOLECULE
ASD01913396
  34   36    0    0    0
SMALL
NO_CHARGES


@<TRIPOS>ATOM
   1 C1            -0.1078    -0.7206    -2.1596 C.ar    
   2 C2            -0.5520    -0.0424    -1.0291 C.ar    
   3 C3            -0.5249     1.3485    -1.0416 C.ar    
   4 N4            -0.0811     1.9722    -2.1204 N.ar    
   5 C5             0.3314     1.2938    -3.1723 C.ar    
   6 N6             0.3213    -0.0238    -3.1989 N.ar    
   7 C7            -1.0069    -2.0790     0.0069 C.ar    
   8 C8             0.1738    -2.7854     0.1914 C.ar    
   9 C9             0.1728    -4.1685     0.1441 C.ar    
  10 C10           -1.0033    -4.8545    -0.0864 C.ar    
  11 C11           -2.1952    -4.1517    -0.2725 C.ar    
  12 C12           -2.1921    -2.7576    -0.2250 C.ar    
  13 C13           -3.4561    -4.8825    -0.5201 C.2     
  14 N14           -3.4563    -6.2295    -0.5664 N.am    
  15 C15           -4.6595    -6.9224    -0.6937 C.ar    
  16 O16           -4.4927    -4.2686    -0.6818 O.2     
  17 O17           -1.0011    -0.7211     0.0594 O.3     
  18 C18           -4.6647    -8.3106    -0.6238 C.ar    
  19 C19           -5.8653    -8.9871    -0.7517 C.ar    
  20 C20           -7.0254    -8.2470    -0.9461 C.ar    
  21 C21           -6.9453    -6.8673    -1.0054 C.ar    
  22 N22           -5.7860    -6.2515    -0.8746 N.ar    
  23 F23           -8.2180    -8.8681    -1.0761 F       
  24 Cl24           1.6543    -5.0435     0.3748 Cl      
  25 H25           -0.1092    -1.8002    -2.1867 H       
  26 H26           -0.8618     1.9108    -0.1833 H       
  27 H27            0.6880     1.8331    -4.0374 H       
  28 H28            1.0963    -2.2537     0.3720 H       
  29 H29           -1.0010    -5.9338    -0.1231 H       
  30 H30           -3.1112    -2.2088    -0.3679 H       
  31 H31           -2.6195    -6.7168    -0.5111 H       
  32 H32           -3.7439    -8.8542    -0.4721 H       
  33 H33           -5.8998   -10.0654    -0.7018 H       
  34 H34           -7.8435    -6.2869    -1.1563 H       
@<TRIPOS>BOND
   1    1    2 ar
   2    1    6 ar
   3    1   25 1
   4    2    3 ar
   5    2   17 1
   6    3    4 ar
   7    3   26 1
   8    4    5 ar
   9    5    6 ar
  10    5   27 1
  11    7    8 ar
  12    7   12 ar
  13    7   17 1
  14    8    9 ar
  15    8   28 1
  16    9   10 ar
  17    9   24 1
  18   10   11 ar
  19   10   29 1
  20   11   12 ar
  21   11   13 1
  22   12   30 1
  23   13   14 am
  24   13   16 2
  25   14   15 1
  26   14   31 1
  27   15   18 ar
  28   15   22 ar
  29   18   19 ar
  30   18   32 1
  31   19   20 ar
  32   19   33 1
  33   20   21 ar
  34   20   23 1
  35   21   22 ar
  36   21   34 1

#	End of record

