#	Name: ASD01911526
#	Creating user name:	WinNT
#	Creation time:	15. 06. 2019 19:57

#	Modifying user name:	WinNT
#	Modification time:	15. 06. 2019 19:57

#	Program:	/corina/corina34_cracker 3.40 0067  02.08.2006

@<TRIPOS>MOLECULE
ASD01911526
  29   30    0    0    0
SMALL
NO_CHARGES


@<TRIPOS>ATOM
   1 C1            -0.0095     1.3397    -0.1337 C.2     
   2 N2             0.0078    -0.0015    -0.1505 N.am    
   3 C3             1.2612    -0.7483    -0.0317 C.3     
   4 C4             2.2602     0.0737     0.7897 C.3     
   5 C5             2.4202     1.4477     0.1303 C.3     
   6 N6             1.1039     2.0753     0.0027 N.am    
   7 O7            -1.0760     1.9113    -0.2517 O.2     
   8 C8             0.9971    -2.0819     0.6701 C.3     
   9 C9             1.8361    -1.0075    -1.4256 C.3     
  10 C10            1.0055     3.4660     0.0228 C.ar    
  11 C11            0.8693     4.1382     1.2341 C.ar    
  12 N12            1.0468     4.1515    -1.1117 N.ar    
  13 N13            0.7764     5.4546     1.2495 N.ar    
  14 C14            0.8125     6.1350     0.1153 C.ar    
  15 C15            0.9532     5.4701    -1.0894 C.ar    
  16 Br16           0.6784     8.0210     0.1419 Br      
  17 H17           -0.8272    -0.4863    -0.2431 H       
  18 H18            1.8852     0.1967     1.8057 H       
  19 H19            3.2233    -0.4362     0.8114 H       
  20 H20            3.0645     2.0747     0.7466 H       
  21 H21            2.8641     1.3280    -0.8580 H       
  22 H22            0.2821    -2.6634     0.0882 H       
  23 H23            1.9309    -2.6373     0.7582 H       
  24 H24            0.5903    -1.8952     1.6640 H       
  25 H25            2.0262    -0.0563    -1.9229 H       
  26 H26            2.7693    -1.5636    -1.3361 H       
  27 H27            1.1224    -1.5872    -2.0110 H       
  28 H28            0.8394     3.5831     2.1601 H       
  29 H29            0.9872     6.0288    -2.0130 H       
@<TRIPOS>BOND
   1    1    2 am
   2    1    6 am
   3    1    7 2
   4    2    3 1
   5    2   17 1
   6    3    4 1
   7    3    8 1
   8    3    9 1
   9    4    5 1
  10    4   18 1
  11    4   19 1
  12    5    6 1
  13    5   20 1
  14    5   21 1
  15    6   10 1
  16    8   22 1
  17    8   23 1
  18    8   24 1
  19    9   25 1
  20    9   26 1
  21    9   27 1
  22   10   11 ar
  23   10   12 ar
  24   11   13 ar
  25   11   28 1
  26   12   15 ar
  27   13   14 ar
  28   14   15 ar
  29   14   16 1
  30   15   29 1

#	End of record

