#	Name: ASD00170359
#	Creating user name:	WinNT
#	Creation time:	15. 06. 2019 18:32

#	Modifying user name:	WinNT
#	Modification time:	15. 06. 2019 18:32

#	Program:	/corina/corina34_cracker 3.40 0067  02.08.2006

@<TRIPOS>MOLECULE
ASD00170359
  49   52    0    0    0
SMALL
NO_CHARGES


@<TRIPOS>ATOM
   1 C1             4.0137     1.4693     3.6823 C.ar    
   2 C2             4.0275     0.0844     3.6953 C.ar    
   3 C3             3.9233    -0.6258     2.5107 C.ar    
   4 C4             3.8050     0.0431     1.3106 C.ar    
   5 C5             3.7901     1.4389     1.2913 C.ar    
   6 C6             3.8955     2.1493     2.4884 C.ar    
   7 Cl7            4.1767    -0.7647     5.2021 Cl      
   8 C8             4.6615     4.5274    -0.1279 C.2     
   9 C9             3.5335     3.6177    -0.0013 C.2     
  10 C10            3.6640     2.1623     0.0075 C.2     
  11 O11            3.6689     1.5450    -1.0423 O.2     
  12 C12            4.2955     5.8131    -0.1044 C.2     
  13 S13            2.5561     5.9632     0.0659 S.3     
  14 C14            2.3326     4.2748     0.1095 C.2     
  15 N15            1.1088     3.6509     0.2388 N.pl3   
  16 C16            5.2484     6.9759    -0.2095 C.3     
  17 C17            5.4296     7.3555    -1.6805 C.3     
  18 C18            6.0672     4.0771    -0.2623 C.ar    
  19 C19            6.4686     3.3635    -1.3909 C.ar    
  20 C20            7.7788     2.9473    -1.5107 C.ar    
  21 C21            8.6933     3.2368    -0.5139 C.ar    
  22 C22            8.3008     3.9442     0.6083 C.ar    
  23 C23            6.9946     4.3706     0.7365 C.ar    
  24 C24            6.3825     8.5183    -1.7856 C.ar    
  25 C25            7.7395     8.2901    -1.9169 C.ar    
  26 C26            8.6136     9.3567    -2.0132 C.ar    
  27 C27            8.1305    10.6515    -1.9786 C.ar    
  28 C28            6.7734    10.8796    -1.8482 C.ar    
  29 C29            5.8989     9.8129    -1.7563 C.ar    
  30 H30            4.0912     2.0178     4.6095 H       
  31 H31            3.9350    -1.7057     2.5269 H       
  32 H32            3.7245    -0.5116     0.3875 H       
  33 H33            3.8841     3.2292     2.4796 H       
  34 H34            0.3097     4.1782     0.3947 H       
  35 H35            1.0475     2.6851     0.1737 H       
  36 H36            4.8445     7.8273     0.3384 H       
  37 H37            6.2124     6.6951     0.2148 H       
  38 H38            5.8335     6.5041    -2.2283 H       
  39 H39            4.4656     7.6362    -2.1047 H       
  40 H40            5.7554     3.1365    -2.1695 H       
  41 H41            8.0908     2.3941    -2.3842 H       
  42 H42            9.7177     2.9091    -0.6120 H       
  43 H43            9.0190     4.1671     1.3834 H       
  44 H44            6.6904     4.9270     1.6108 H       
  45 H45            8.1169     7.2786    -1.9439 H       
  46 H46            9.6739     9.1785    -2.1151 H       
  47 H47            8.8134    11.4848    -2.0532 H       
  48 H48            6.3960    11.8912    -1.8209 H       
  49 H49            4.8382     9.9911    -1.6582 H       
@<TRIPOS>BOND
   1    1    2 ar
   2    1    6 ar
   3    1   30 1
   4    2    3 ar
   5    2    7 1
   6    3    4 ar
   7    3   31 1
   8    4    5 ar
   9    4   32 1
  10    5    6 ar
  11    5   10 1
  12    6   33 1
  13    8   18 1
  14    8    9 1
  15    8   12 2
  16    9   10 1
  17    9   14 2
  18   10   11 2
  19   12   13 1
  20   12   16 1
  21   13   14 1
  22   14   15 1
  23   15   34 1
  24   15   35 1
  25   16   17 1
  26   16   36 1
  27   16   37 1
  28   17   24 1
  29   17   38 1
  30   17   39 1
  31   18   19 ar
  32   18   23 ar
  33   19   20 ar
  34   19   40 1
  35   20   21 ar
  36   20   41 1
  37   21   22 ar
  38   21   42 1
  39   22   23 ar
  40   22   43 1
  41   23   44 1
  42   24   25 ar
  43   24   29 ar
  44   25   26 ar
  45   25   45 1
  46   26   27 ar
  47   26   46 1
  48   27   28 ar
  49   27   47 1
  50   28   29 ar
  51   28   48 1
  52   29   49 1

#	End of record

