#	Name: ASD00431026
#	Creating user name:	WinNT
#	Creation time:	15. 06. 2019 18:35

#	Modifying user name:	WinNT
#	Modification time:	15. 06. 2019 18:35

#	Program:	/corina/corina34_cracker 3.40 0067  02.08.2006

@<TRIPOS>MOLECULE
ASD00431026
  14   14    0    0    0
SMALL
NO_CHARGES


@<TRIPOS>ATOM
   1 C1            -0.0178     1.4648     0.0101 C.3     
   2 N2             0.0021    -0.0041     0.0020 N.3     
   3 C3             1.3960     1.9864    -0.0006 C.2     
   4 C4             2.1070     2.2584    -1.0959 C.2     
   5 C5             3.3869     2.7290    -0.8585 C.2     
   6 C6             3.7154     2.8391     0.4296 C.2     
   7 S7             2.3583     2.3368     1.4293 S.3     
   8 H8            -0.5450     1.8259    -0.8730 H       
   9 H9            -0.5280     1.8163     0.9069 H       
  10 H10           -0.9349    -0.3784     0.0090 H       
  11 H11            0.5256    -0.3543    -0.7863 H       
  12 H12            1.7139     2.1215    -2.0925 H       
  13 H13            4.0682     2.9870    -1.6559 H       
  14 H14            4.6677     3.1869     0.8017 H       
@<TRIPOS>BOND
   1    1    2 1
   2    1    3 1
   3    1    8 1
   4    1    9 1
   5    2   10 1
   6    2   11 1
   7    3    4 2
   8    3    7 1
   9    4    5 1
  10    4   12 1
  11    5    6 2
  12    5   13 1
  13    6    7 1
  14    6   14 1

#	End of record

