#	Name: ASD04880179
#	Creating user name:	WinNT
#	Creation time:	15. 06. 2019 20:52

#	Modifying user name:	WinNT
#	Modification time:	15. 06. 2019 20:52

#	Program:	/corina/corina34_cracker 3.40 0067  02.08.2006

@<TRIPOS>MOLECULE
ASD04880179
  36   38    0    0    0
SMALL
NO_CHARGES


@<TRIPOS>ATOM
   1 C1            -0.0144     1.2116     0.0087 C.2     
   2 O2             0.0480    -0.0024     0.0311 O.2     
   3 N3             1.1159     1.9435    -0.0478 N.am    
   4 N4             1.1786     3.3282    -0.1900 N.2     
   5 C5             2.3767     3.8008    -0.2180 C.2     
   6 C6             3.3696     2.6684    -0.0835 C.3     
   7 C7             2.4853     1.4115     0.0371 C.3     
   8 C8             2.1054     7.5300    -0.6096 C.ar    
   9 C9             1.7305     6.2018    -0.4782 C.ar    
  10 C10            2.7261     5.2264    -0.3600 C.ar    
  11 C11            4.0658     5.6415    -0.3796 C.ar    
  12 C12            4.3499     6.9826    -0.5134 C.ar    
  13 N13            3.3827     7.8749    -0.6230 N.ar    
  14 O14            1.1512     8.4871    -0.7310 O.3     
  15 C15            1.5998     9.8374    -0.8631 C.3     
  16 C16           -1.3299     1.8846     0.0373 C.ar    
  17 C17           -1.4041     3.2735     0.1560 C.ar    
  18 C18           -2.6373     3.8960     0.1821 C.ar    
  19 C19           -3.7977     3.1435     0.0911 C.ar    
  20 C20           -3.7288     1.7672    -0.0262 C.ar    
  21 C21           -2.5030     1.1345    -0.0601 C.ar    
  22 F22           -2.7122     5.2400     0.2970 F       
  23 H23            4.0048     2.6098    -0.9674 H       
  24 H24            3.9737     2.7943     0.8150 H       
  25 H25            2.6462     0.9176     0.9953 H       
  26 H26            2.6821     0.7256    -0.7869 H       
  27 H27            0.6868     5.9247    -0.4674 H       
  28 H28            4.8639     4.9193    -0.2906 H       
  29 H29            5.3792     7.3093    -0.5293 H       
  30 H30            2.1823    10.1143     0.0156 H       
  31 H31            2.2209     9.9284    -1.7542 H       
  32 H32            0.7384    10.4994    -0.9515 H       
  33 H33           -0.5000     3.8599     0.2277 H       
  34 H34           -4.7597     3.6339     0.1122 H       
  35 H35           -4.6367     1.1865    -0.0960 H       
  36 H36           -2.4515     0.0600    -0.1567 H       
@<TRIPOS>BOND
   1    1    2 2
   2    1    3 am
   3    1   16 1
   4    3    4 1
   5    3    7 1
   6    4    5 2
   7    5    6 1
   8    5   10 1
   9    6    7 1
  10    6   23 1
  11    6   24 1
  12    7   25 1
  13    7   26 1
  14    8    9 ar
  15    8   13 ar
  16    8   14 1
  17    9   10 ar
  18    9   27 1
  19   10   11 ar
  20   11   12 ar
  21   11   28 1
  22   12   13 ar
  23   12   29 1
  24   14   15 1
  25   15   30 1
  26   15   31 1
  27   15   32 1
  28   16   17 ar
  29   16   21 ar
  30   17   18 ar
  31   17   33 1
  32   18   19 ar
  33   18   22 1
  34   19   20 ar
  35   19   34 1
  36   20   21 ar
  37   20   35 1
  38   21   36 1

#	End of record

