#	Name: ASD01150555
#	Creating user name:	WinNT
#	Creation time:	15. 06. 2019 19:04

#	Modifying user name:	WinNT
#	Modification time:	15. 06. 2019 19:04

#	Program:	/corina/corina34_cracker 3.40 0067  02.08.2006

@<TRIPOS>MOLECULE
ASD01150555
  49   51    0    0    0
SMALL
NO_CHARGES


@<TRIPOS>ATOM
   1 C1             0.6153     1.6516    -0.8161 C.ar    
   2 C2             0.6246     0.2827    -1.0018 C.ar    
   3 C3             2.0314     0.0283     0.9299 C.ar    
   4 C4             2.0234     1.4025     1.1174 C.ar    
   5 C5             1.3145     2.2155     0.2439 C.ar    
   6 N6             1.3044     3.6028     0.4305 N.am    
   7 C7             0.1369     4.2685     0.3897 C.2     
   8 N8             0.0906     5.6023     0.5650 N.am    
   9 C9             1.2272     6.2948     0.7862 C.2     
  10 C10            2.5074     5.5726     0.8320 C.2     
  11 N11            2.5094     4.2765     0.6627 N.2     
  12 O12            1.1935     7.5008     0.9452 O.2     
  13 C13           -1.1952     6.3028     0.5151 C.3     
  14 O14           -0.8944     3.6554     0.1907 O.2     
  15 C15           -1.8383     6.2698     1.8776 C.ar    
  16 O16            3.6692     6.2412     1.0528 O.3     
  17 C17            4.8688     5.4653     1.0823 C.3     
  18 C18            1.3301    -0.5309    -0.1332 C.ar    
  19 N19            2.7459    -0.7951     1.8089 N.am    
  20 C20            3.0814    -0.3429     3.0334 C.2     
  21 C21            3.9374    -1.1887     3.9406 C.3     
  22 O22            2.6943     0.7448     3.4052 O.2     
  23 C23           -1.1504     5.7425     2.9536 C.ar    
  24 C24           -1.7381     5.7110     4.2046 C.ar    
  25 C25           -3.0178     6.2084     4.3833 C.ar    
  26 C26           -3.7111     6.7385     3.3074 C.ar    
  27 C27           -3.1186     6.7741     2.0524 C.ar    
  28 F28            1.3374    -1.8693    -0.3174 F       
  29 F29           -4.9601     7.2237     3.4801 F       
  30 F30           -3.5904     6.1763     5.6065 F       
  31 O31           -3.7958     7.2940     0.9943 O.3     
  32 C32           -3.7299     8.7101     0.8143 C.3     
  33 H33            0.0673     2.2847    -1.4983 H       
  34 H34            0.0800    -0.1532    -1.8263 H       
  35 H35            2.5674     1.8391     1.9419 H       
  36 H36           -1.0335     7.3380     0.2146 H       
  37 H37           -1.8482     5.8125    -0.2069 H       
  38 H38            5.7206     6.1200     1.2665 H       
  39 H39            4.8021     4.7234     1.8781 H       
  40 H40            4.9987     4.9606     0.1250 H       
  41 H41            2.9993    -1.6909     1.5365 H       
  42 H42            4.9885    -0.9580     3.7674 H       
  43 H43            3.6853    -0.9767     4.9796 H       
  44 H44            3.7574    -2.2431     3.7309 H       
  45 H45           -0.1520     5.3539     2.8171 H       
  46 H46           -1.1982     5.2976     5.0437 H       
  47 H47           -4.3805     9.0023    -0.0099 H       
  48 H48           -4.0549     9.2080     1.7279 H       
  49 H49           -2.7039     9.0002     0.5878 H       
@<TRIPOS>BOND
   1    1    2 ar
   2    1    5 ar
   3    1   33 1
   4    2   18 ar
   5    2   34 1
   6    3    4 ar
   7    3   19 1
   8    3   18 ar
   9    4    5 ar
  10    4   35 1
  11    5    6 1
  12    6    7 am
  13    6   11 1
  14    7    8 am
  15    7   14 2
  16    8    9 am
  17    8   13 1
  18    9   10 1
  19    9   12 2
  20   10   11 2
  21   10   16 1
  22   13   15 1
  23   13   36 1
  24   13   37 1
  25   15   23 ar
  26   15   27 ar
  27   16   17 1
  28   17   38 1
  29   17   39 1
  30   17   40 1
  31   18   28 1
  32   19   20 am
  33   19   41 1
  34   20   21 1
  35   20   22 2
  36   21   42 1
  37   21   43 1
  38   21   44 1
  39   23   24 ar
  40   23   45 1
  41   24   25 ar
  42   24   46 1
  43   25   26 ar
  44   25   30 1
  45   26   27 ar
  46   26   29 1
  47   27   31 1
  48   31   32 1
  49   32   47 1
  50   32   48 1
  51   32   49 1

#	End of record

