#	Name: ASD01914157
#	Creating user name:	WinNT
#	Creation time:	15. 06. 2019 20:02

#	Modifying user name:	WinNT
#	Modification time:	15. 06. 2019 20:02

#	Program:	/corina/corina34_cracker 3.40 0067  02.08.2006

@<TRIPOS>MOLECULE
ASD01914157
  51   54    0    0    0
SMALL
NO_CHARGES


@<TRIPOS>ATOM
   1 C1             2.0764     0.5864     0.6653 C.2     
   2 C2             1.7274    -0.8393     0.6145 C.2     
   3 N3             0.5211    -1.3533     0.4237 N.2     
   4 C4             0.6890    -2.6835     0.4552 C.2     
   5 N5             1.9523    -2.9179     0.6577 N.2     
   6 O6             2.5698    -1.8778     0.7467 O.3     
   7 C7            -0.3917    -3.7202     0.2867 C.3     
   8 C8            -0.0718    -4.5995    -0.9243 C.3     
   9 C9            -1.1853    -5.6317    -1.1159 C.3     
  10 C10           -1.2647    -6.5274     0.1244 C.3     
  11 N11           -1.4275    -5.6775     1.3118 N.am    
  12 C12           -0.4622    -4.5942     1.5429 C.3     
  13 C13           -2.4430    -5.8875     2.1726 C.2     
  14 C14           -2.5240    -5.1053     3.4266 C.ar    
  15 O15           -3.2921    -6.7192     1.9193 O.2     
  16 C16            3.3267     1.1038     0.8631 C.2     
  17 C17            3.2080     2.4988     0.8393 C.2     
  18 C18            1.9050     2.7992     0.6302 C.2     
  19 N19            1.2055     1.6399     0.5165 N.pl3   
  20 C20            4.3304     3.4888     1.0155 C.3     
  21 C21           -1.5250    -4.2021     5.4118 C.ar    
  22 N22           -2.6796    -3.6545     5.7496 N.ar    
  23 C23           -3.7609    -3.7887     5.0070 C.ar    
  24 C24           -3.7285    -4.5114     3.8282 C.ar    
  25 C25           -1.4038    -4.9436     4.2451 C.ar    
  26 C26            0.0230    -7.3439     0.2507 C.3     
  27 F27           -4.8419    -4.6426     3.0742 F       
  28 O28           -0.4428    -4.0322     6.2132 O.3     
  29 C29           -0.6281    -3.2539     7.3972 C.3     
  30 H30           -1.3504    -3.2248     0.1334 H       
  31 H31            0.0032    -3.9766    -1.8157 H       
  32 H32            0.8754    -5.1133    -0.7599 H       
  33 H33           -2.1368    -5.1187    -1.2557 H       
  34 H34           -0.9685    -6.2424    -1.9923 H       
  35 H35           -2.1186    -7.1991     0.0360 H       
  36 H36            0.5207    -5.0183     1.7485 H       
  37 H37           -0.7865    -3.9904     2.3904 H       
  38 H38            4.2366     0.5410     1.0106 H       
  39 H39            1.4910     3.7943     0.5610 H       
  40 H40            0.2505     1.5676     0.3629 H       
  41 H41            4.7634     3.7240     0.0432 H       
  42 H42            3.9429     4.4002     1.4707 H       
  43 H43            5.0968     3.0582     1.6600 H       
  44 H44           -4.6837    -3.3239     5.3214 H       
  45 H45           -0.4579    -5.3891     3.9743 H       
  46 H46            0.8735    -6.6688     0.3452 H       
  47 H47           -0.0356    -7.9804     1.1336 H       
  48 H48            0.1483    -7.9643    -0.6367 H       
  49 H49           -1.3866    -3.7219     8.0247 H       
  50 H50            0.3123    -3.1968     7.9454 H       
  51 H51           -0.9514    -2.2492     7.1247 H       
@<TRIPOS>BOND
   1    1    2 1
   2    1   16 2
   3    1   19 1
   4    2    3 2
   5    2    6 1
   6    3    4 1
   7    4    5 2
   8    4    7 1
   9    5    6 1
  10    7    8 1
  11    7   12 1
  12    7   30 1
  13    8    9 1
  14    8   31 1
  15    8   32 1
  16    9   10 1
  17    9   33 1
  18    9   34 1
  19   10   11 1
  20   10   26 1
  21   10   35 1
  22   11   12 1
  23   11   13 am
  24   12   36 1
  25   12   37 1
  26   13   14 1
  27   13   15 2
  28   14   25 ar
  29   14   24 ar
  30   16   17 1
  31   16   38 1
  32   17   18 2
  33   17   20 1
  34   18   19 1
  35   18   39 1
  36   19   40 1
  37   20   41 1
  38   20   42 1
  39   20   43 1
  40   21   22 ar
  41   21   28 1
  42   21   25 ar
  43   22   23 ar
  44   23   24 ar
  45   23   44 1
  46   24   27 1
  47   25   45 1
  48   26   46 1
  49   26   47 1
  50   26   48 1
  51   28   29 1
  52   29   49 1
  53   29   50 1
  54   29   51 1

#	End of record

