#	Name: ASD01918427
#	Creating user name:	WinNT
#	Creation time:	15. 06. 2019 20:11

#	Modifying user name:	WinNT
#	Modification time:	15. 06. 2019 20:11

#	Program:	/corina/corina34_cracker 3.40 0067  02.08.2006

@<TRIPOS>MOLECULE
ASD01918427
  59   63    0    0    0
SMALL
NO_CHARGES


@<TRIPOS>ATOM
   1 C1             1.9318     1.1757    -0.0638 C.3     
   2 C2             1.2659    -0.1762    -0.0538 C.ar    
   3 C3             1.0554    -0.8487    -1.2393 C.ar    
   4 C4             0.4392    -2.1005    -1.2286 C.ar    
   5 C5             0.0392    -2.6653    -0.0176 C.ar    
   6 C6             0.2543    -1.9845     1.1628 C.ar    
   7 C7             0.8713    -0.7440     1.1473 C.ar    
   8 F8             1.0848    -0.0837     2.3064 F       
   9 C9             0.2105    -2.8262    -2.4978 C.2     
  10 C10            0.1309    -2.2706    -3.7412 C.2     
  11 C11           -0.0934    -3.3085    -4.6613 C.2     
  12 N12           -0.1467    -4.4447    -3.9982 N.2     
  13 N13            0.0468    -4.1728    -2.6380 N.pl3   
  14 C14            0.0670    -5.1605    -1.5561 C.3     
  15 C15           -1.3422    -5.4275    -1.0934 C.2     
  16 O16           -2.2717    -4.8497    -1.6158 O.2     
  17 N17           -1.5693    -6.3084    -0.0990 N.am    
  18 C18           -0.4561    -7.0153     0.5523 C.3     
  19 C19           -0.7648    -8.5163     0.5500 C.3     
  20 N20           -2.0837    -8.7426     1.1562 N.3     
  21 C21           -3.1482    -8.1061     0.3690 C.3     
  22 C22           -2.9366    -6.5837     0.3679 C.3     
  23 C23           -2.3289   -10.0949     1.3199 C.ar    
  24 N24           -1.4078   -10.9695     0.9429 N.ar    
  25 C25           -1.6104   -12.2688     1.0859 C.ar    
  26 C26           -2.8028   -12.7104     1.6375 C.ar    
  27 C27           -3.7445   -11.7685     2.0210 C.ar    
  28 N28           -3.4769   -10.4838     1.8550 N.ar    
  29 C29           -0.2447    -3.1510    -6.1295 C.ar    
  30 C30           -0.1618    -1.8869    -6.7092 C.ar    
  31 C31           -0.3033    -1.7461    -8.0749 C.ar    
  32 C32           -0.5271    -2.8572    -8.8677 C.ar    
  33 C33           -0.6103    -4.1146    -8.2974 C.ar    
  34 C34           -0.4645    -4.2674    -6.9334 C.ar    
  35 H35            3.0111     1.0498     0.0219 H       
  36 H36            1.6988     1.6885    -0.9970 H       
  37 H37            1.5670     1.7666     0.7763 H       
  38 H38            1.3666    -0.4070    -2.1744 H       
  39 H39           -0.4385    -3.6338    -0.0041 H       
  40 H40           -0.0551    -2.4209     2.1010 H       
  41 H41            0.2231    -1.2205    -3.9762 H       
  42 H42            0.5122    -6.0871    -1.9184 H       
  43 H43            0.6560    -4.7755    -0.7237 H       
  44 H44            0.4667    -6.8305     0.0023 H       
  45 H45           -0.3503    -6.6648     1.5789 H       
  46 H46           -0.7677    -8.8856    -0.4755 H       
  47 H47           -0.0047    -9.0449     1.1253 H       
  48 H48           -3.1178    -8.4810    -0.6540 H       
  49 H49           -4.1165    -8.3371     0.8129 H       
  50 H50           -3.0647    -6.1925     1.3772 H       
  51 H51           -3.6546    -6.1134    -0.3040 H       
  52 H52           -0.8560   -12.9769     0.7764 H       
  53 H53           -2.9942   -13.7657     1.7653 H       
  54 H54           -4.6839   -12.0797     2.4537 H       
  55 H55            0.0125    -1.0186    -6.0910 H       
  56 H56           -0.2396    -0.7665    -8.5253 H       
  57 H57           -0.6376    -2.7425    -9.9359 H       
  58 H58           -0.7851    -4.9788    -8.9210 H       
  59 H59           -0.5248    -5.2502    -6.4896 H       
@<TRIPOS>BOND
   1    1    2 1
   2    1   35 1
   3    1   36 1
   4    1   37 1
   5    2    7 ar
   6    2    3 ar
   7    3    4 ar
   8    3   38 1
   9    4    5 ar
  10    4    9 1
  11    5    6 ar
  12    5   39 1
  13    6    7 ar
  14    6   40 1
  15    7    8 1
  16    9   13 1
  17    9   10 2
  18   10   11 1
  19   10   41 1
  20   11   12 2
  21   11   29 1
  22   12   13 1
  23   13   14 1
  24   14   15 1
  25   14   42 1
  26   14   43 1
  27   15   16 2
  28   15   17 am
  29   17   22 1
  30   17   18 1
  31   18   19 1
  32   18   44 1
  33   18   45 1
  34   19   20 1
  35   19   46 1
  36   19   47 1
  37   20   21 1
  38   20   23 1
  39   21   22 1
  40   21   48 1
  41   21   49 1
  42   22   50 1
  43   22   51 1
  44   23   28 ar
  45   23   24 ar
  46   24   25 ar
  47   25   26 ar
  48   25   52 1
  49   26   27 ar
  50   26   53 1
  51   27   28 ar
  52   27   54 1
  53   29   34 ar
  54   29   30 ar
  55   30   31 ar
  56   30   55 1
  57   31   32 ar
  58   31   56 1
  59   32   33 ar
  60   32   57 1
  61   33   34 ar
  62   33   58 1
  63   34   59 1

#	End of record

