#	Name: ASD01411087
#	Creating user name:	WinNT
#	Creation time:	15. 06. 2019 19:19

#	Modifying user name:	WinNT
#	Modification time:	15. 06. 2019 19:19

#	Program:	/corina/corina34_cracker 3.40 0067  02.08.2006

@<TRIPOS>MOLECULE
ASD01411087
  40   43    0    0    0
SMALL
NO_CHARGES


@<TRIPOS>ATOM
   1 C1            -0.0820     1.5418     0.3893 C.2     
   2 C2            -0.1181     0.1097     0.5785 C.ar    
   3 C3             1.2155     1.8916     0.2285 C.2     
   4 C4            -1.2136     2.5384     0.3662 C.3     
   5 C5             1.2312    -0.3259     0.5155 C.ar    
   6 C6            -1.1632    -0.7971     0.7885 C.ar    
   7 C7             1.6531     3.3196     0.0023 C.3     
   8 N8             2.0071     0.7792     0.3036 N.pl3   
   9 C9            -0.6096     3.9409     0.5274 C.3     
  10 C10            1.5515    -1.6745     0.6615 C.ar    
  11 C11           -0.8157    -2.1292     0.9300 C.ar    
  12 Cl12          -2.8171    -0.2756     0.8683 Cl      
  13 O13            0.5000     4.0881    -0.3632 O.3     
  14 C14            2.2625     3.8827     1.2878 C.3     
  15 C15            2.6869     3.3705    -1.1245 C.3     
  16 C16            0.5013    -2.5536     0.8681 C.ar    
  17 Cl17           3.1951    -2.2285     0.5870 Cl      
  18 C18            2.0822     2.8115    -2.3866 C.2     
  19 H19            2.9734     0.7750     0.2190 H       
  20 O20            0.9414     2.4133    -2.3850 O.2     
  21 O21            2.8109     2.7560    -3.5125 O.3     
  22 H22            2.3800     2.3894    -4.2967 H       
  23 C23            3.5030     3.1123     1.7702 C.3     
  24 C24            4.1144     4.4773     2.1279 C.3     
  25 C25            3.1958     5.0822     1.0531 C.3     
  26 H26           -1.7441     2.4722    -0.5837 H       
  27 H27           -1.9004     2.3358     1.1879 H       
  28 H28           -1.3655     4.6910     0.2949 H       
  29 H29           -0.2693     4.0741     1.5543 H       
  30 H30           -1.5944    -2.8594     1.0939 H       
  31 H31            1.5215     4.0506     2.0693 H       
  32 H32            2.9896     4.4039    -1.2934 H       
  33 H33            3.5579     2.7777    -0.8454 H       
  34 H34            0.7165    -3.6054     0.9849 H       
  35 H35            3.3137     2.4783     2.6364 H       
  36 H36            4.0322     2.5926     0.9715 H       
  37 H37            3.8804     4.8090     3.1394 H       
  38 H38            5.1753     4.5562     1.8903 H       
  39 H39            3.6410     5.1010     0.0584 H       
  40 H40            2.7584     6.0384     1.3404 H       
@<TRIPOS>BOND
   1    1    2 1
   2    1    3 2
   3    1    4 1
   4    2    5 ar
   5    2    6 ar
   6    3    7 1
   7    3    8 1
   8    4    9 1
   9    4   26 1
  10    4   27 1
  11    5   10 ar
  12    5    8 1
  13    6   11 ar
  14    6   12 1
  15    7   14 1
  16    7   15 1
  17    7   13 1
  18    8   19 1
  19    9   13 1
  20    9   28 1
  21    9   29 1
  22   10   16 ar
  23   10   17 1
  24   11   16 ar
  25   11   30 1
  26   14   23 1
  27   14   25 1
  28   14   31 1
  29   15   18 1
  30   15   32 1
  31   15   33 1
  32   16   34 1
  33   18   20 2
  34   18   21 1
  35   21   22 1
  36   23   24 1
  37   23   35 1
  38   23   36 1
  39   24   25 1
  40   24   37 1
  41   24   38 1
  42   25   39 1
  43   25   40 1

#	End of record

