#	Name: ASD01720168
#	Creating user name:	WinNT
#	Creation time:	15. 06. 2019 19:23

#	Modifying user name:	WinNT
#	Modification time:	15. 06. 2019 19:23

#	Program:	/corina/corina34_cracker 3.40 0067  02.08.2006

@<TRIPOS>MOLECULE
ASD01720168
  52   54    0    0    0
SMALL
NO_CHARGES


@<TRIPOS>ATOM
   1 C1            -0.6127     1.7872     0.7773 C.ar    
   2 N2            -0.7354     0.4928     1.0294 N.ar    
   3 C3             0.3108    -0.3170     0.9566 C.ar    
   4 N4             1.5142     0.1302     0.6316 N.ar    
   5 C5             1.7091     1.4173     0.3660 C.ar    
   6 C6             0.6263     2.2945     0.4340 C.ar    
   7 N7             2.9738     1.8834     0.0256 N.am    
   8 C8             3.3621     3.2976    -0.0889 C.3     
   9 C9             4.8501     3.2386    -0.4847 C.3     
  10 O10            5.1412     1.8125    -0.5510 O.3     
  11 C11            4.0394     1.1178    -0.2462 C.2     
  12 N12            0.1418    -1.6637     1.2274 N.pl3   
  13 C13           -1.1815    -2.1777     1.5892 C.3     
  14 C14           -1.0239    -3.4575     2.4127 C.3     
  15 C15           -1.9748    -2.4841     0.3173 C.3     
  16 C16           -2.4059    -3.9944     2.7905 C.3     
  17 C17            3.1908     4.0122     1.2531 C.3     
  18 C18            4.0519     3.3213     2.3124 C.3     
  19 C19            3.6280     5.4718     1.1130 C.3     
  20 O20            4.0070    -0.0965    -0.2214 O.2     
  21 C21           -0.2775    -4.5069     1.5864 C.3     
  22 C22           -0.1199    -5.7867     2.4099 C.3     
  23 C23           -1.5019    -6.3236     2.7877 C.3     
  24 C24           -2.2482    -5.2742     3.6140 C.3     
  25 H25           -1.4723     2.4385     0.8349 H       
  26 H26            0.7535     3.3461     0.2235 H       
  27 H27            2.7789     3.7932    -0.8650 H       
  28 H28            5.0057     3.7060    -1.4570 H       
  29 H29            5.4669     3.7195     0.2746 H       
  30 H30            0.8996    -2.2672     1.1777 H       
  31 H31           -1.7132    -1.4301     2.1778 H       
  32 H32           -0.4587    -3.2393     3.3188 H       
  33 H33           -1.4431    -3.2317    -0.2713 H       
  34 H34           -2.9594    -2.8665     0.5865 H       
  35 H35           -2.0871    -1.5723    -0.2694 H       
  36 H36           -2.9376    -3.2468     3.3791 H       
  37 H37           -2.9710    -4.2126     1.8844 H       
  38 H38            2.1439     3.9738     1.5541 H       
  39 H39            3.8603     3.7715     3.2864 H       
  40 H40            3.8035     2.2606     2.3472 H       
  41 H41            5.1052     3.4397     2.0582 H       
  42 H42            3.0806     5.9380     0.2939 H       
  43 H43            3.4177     6.0046     2.0404 H       
  44 H44            4.6972     5.5124     0.9051 H       
  45 H45           -0.8427    -4.7252     0.6803 H       
  46 H46            0.7071    -4.1245     1.3172 H       
  47 H47            0.4118    -6.5343     1.8213 H       
  48 H48            0.4453    -5.5685     3.3160 H       
  49 H49           -2.0671    -6.5418     1.8816 H       
  50 H50           -1.3896    -7.2353     3.3744 H       
  51 H51           -1.6831    -5.0559     4.5201 H       
  52 H52           -3.2328    -5.6566     3.8831 H       
@<TRIPOS>BOND
   1    1    2 ar
   2    1    6 ar
   3    1   25 1
   4    2    3 ar
   5    3    4 ar
   6    3   12 1
   7    4    5 ar
   8    5    6 ar
   9    5    7 1
  10    6   26 1
  11    7    8 1
  12    7   11 am
  13    8    9 1
  14    8   17 1
  15    8   27 1
  16    9   10 1
  17    9   28 1
  18    9   29 1
  19   10   11 1
  20   11   20 2
  21   12   13 1
  22   12   30 1
  23   13   14 1
  24   13   15 1
  25   13   31 1
  26   14   16 1
  27   14   21 1
  28   14   32 1
  29   15   33 1
  30   15   34 1
  31   15   35 1
  32   16   24 1
  33   16   36 1
  34   16   37 1
  35   17   18 1
  36   17   19 1
  37   17   38 1
  38   18   39 1
  39   18   40 1
  40   18   41 1
  41   19   42 1
  42   19   43 1
  43   19   44 1
  44   21   22 1
  45   21   45 1
  46   21   46 1
  47   22   23 1
  48   22   47 1
  49   22   48 1
  50   23   24 1
  51   23   49 1
  52   23   50 1
  53   24   51 1
  54   24   52 1

#	End of record

