#	Name: ASD01903058
#	Creating user name:	WinNT
#	Creation time:	15. 06. 2019 19:54

#	Modifying user name:	WinNT
#	Modification time:	15. 06. 2019 19:54

#	Program:	/corina/corina34_cracker 3.40 0067  02.08.2006

@<TRIPOS>MOLECULE
ASD01903058
  29   31    0    0    0
SMALL
NO_CHARGES


@<TRIPOS>ATOM
   1 C1             0.7340     1.4983     1.1672 C.2     
   2 N2             0.8321     0.2089     1.4055 N.2     
   3 C3             0.4475    -0.2064     2.5977 C.2     
   4 N4             0.0036     0.6940     3.4377 N.2     
   5 S5             0.1016     2.1791     2.6177 S.3     
   6 C6             0.5154    -1.6412     2.9720 C.2     
   7 N7             1.0718     2.1657     0.0035 N.pl3   
   8 C8             0.1466    -2.1804     4.1701 C.2     
   9 N9             0.3632    -3.5092     4.1032 N.pl3   
  10 N10            0.8784    -3.8055     2.8355 N.2     
  11 C11            0.9665    -2.6947     2.1530 C.2     
  12 C12            0.8745     3.5492    -0.0930 C.ar    
  13 C13            1.8760     4.4255     0.3087 C.ar    
  14 C14            1.6775     5.7911     0.2114 C.ar    
  15 C15            0.4847     6.2846    -0.2841 C.ar    
  16 C16           -0.5141     5.4161    -0.6842 C.ar    
  17 C17           -0.3210     4.0492    -0.5959 C.ar    
  18 C18           -0.4033    -1.4268     5.3536 C.3     
  19 F19            3.0414     3.9443     0.7938 F       
  20 F20           -1.2973     3.2014    -0.9875 F       
  21 H21            1.4452     1.6757    -0.7457 H       
  22 H22            0.1919    -4.1496     4.8113 H       
  23 H23            1.3285    -2.5999     1.1399 H       
  24 H24            2.4551     6.4726     0.5233 H       
  25 H25            0.3326     7.3513    -0.3584 H       
  26 H26           -1.4446     5.8055    -1.0704 H       
  27 H27           -1.4901    -1.3827     5.2833 H       
  28 H28           -0.1191    -1.9377     6.2736 H       
  29 H29            0.0017    -0.4148     5.3601 H       
@<TRIPOS>BOND
   1    1    2 2
   2    1    7 1
   3    1    5 1
   4    2    3 1
   5    3    4 2
   6    3    6 1
   7    4    5 1
   8    6    8 2
   9    6   11 1
  10    7   12 1
  11    7   21 1
  12    8    9 1
  13    8   18 1
  14    9   10 1
  15    9   22 1
  16   10   11 2
  17   11   23 1
  18   12   13 ar
  19   12   17 ar
  20   13   14 ar
  21   13   19 1
  22   14   15 ar
  23   14   24 1
  24   15   16 ar
  25   15   25 1
  26   16   17 ar
  27   16   26 1
  28   17   20 1
  29   18   27 1
  30   18   28 1
  31   18   29 1

#	End of record

