#	Name: ASD01911004
#	Creating user name:	WinNT
#	Creation time:	15. 06. 2019 19:56

#	Modifying user name:	WinNT
#	Modification time:	15. 06. 2019 19:56

#	Program:	/corina/corina34_cracker 3.40 0067  02.08.2006

@<TRIPOS>MOLECULE
ASD01911004
  52   55    0    0    0
SMALL
NO_CHARGES


@<TRIPOS>ATOM
   1 N1             0.3906     0.7064    -1.4862 N.am    
   2 C2             0.1632    -0.6117    -0.9098 C.3     
   3 C3            -1.0395    -0.5904     0.0354 C.3     
   4 N4            -2.1420     0.1155    -0.6393 N.am    
   5 C5            -1.9184     1.5222    -1.0045 C.3     
   6 C6            -0.5333     1.6644    -1.5733 C.2     
   7 C7            -3.3082    -0.5029    -0.9113 C.2     
   8 C8            -4.4392     0.2660    -1.4676 C.ar    
   9 C9            -4.6451     1.5916    -1.0728 C.ar    
  10 C10           -5.6991     2.3140    -1.5888 C.ar    
  11 C11           -6.5644     1.7317    -2.5037 C.ar    
  12 C12           -6.3679     0.4007    -2.9075 C.ar    
  13 C13           -5.2986    -0.3277    -2.3911 C.ar    
  14 C14           -7.2597    -0.2031    -3.8514 C.1     
  15 O15           -3.4289    -1.6938    -0.6985 O.2     
  16 C16           -7.9908    -0.6981    -4.6252 C.1     
  17 C17           -8.8826    -1.3019    -5.5690 C.ar    
  18 N18           -8.6899    -2.5623    -5.9463 N.ar    
  19 C19           -9.4882    -3.1527    -6.8121 C.ar    
  20 C20          -10.5619    -2.4783    -7.3635 C.ar    
  21 C21          -10.8008    -1.1600    -6.9978 C.ar    
  22 C22           -9.9527    -0.5641    -6.0828 C.ar    
  23 C23            1.6701     0.9896    -1.9782 C.ar    
  24 O24           -7.6002     2.4473    -3.0078 O.3     
  25 C25            2.3638     2.0994    -1.5140 C.ar    
  26 C26            3.6263     2.3763    -2.0006 C.ar    
  27 C27            4.1999     1.5493    -2.9503 C.ar    
  28 C28            3.5105     0.4429    -3.4149 C.ar    
  29 C29            2.2503     0.1581    -2.9270 C.ar    
  30 C30           -7.7402     3.7946    -2.5526 C.3     
  31 Cl31           5.7867     1.9005    -3.5604 Cl      
  32 O32           -0.2456     2.6947    -2.1449 O.2     
  33 H33           -0.0230    -1.3265    -1.7113 H       
  34 H34            1.0500    -0.9186    -0.3552 H       
  35 H35           -1.3435    -1.6113     0.2669 H       
  36 H36           -0.7758    -0.0673     0.9546 H       
  37 H37           -2.6546     1.8277    -1.7480 H       
  38 H38           -2.0111     2.1489    -0.1175 H       
  39 H39           -3.9758     2.0509    -0.3604 H       
  40 H40           -5.8524     3.3373    -1.2795 H       
  41 H41           -5.1417    -1.3514    -2.6973 H       
  42 H42           -9.3010    -4.1780    -7.0954 H       
  43 H43          -11.2092    -2.9725    -8.0729 H       
  44 H44          -11.6335    -0.6137    -7.4157 H       
  45 H45          -10.1097     0.4595    -5.7761 H       
  46 H46            1.9163     2.7456    -0.7733 H       
  47 H47            4.1662     3.2393    -1.6399 H       
  48 H48            3.9602    -0.2008    -4.1564 H       
  49 H49            1.7127    -0.7055    -3.2899 H       
  50 H50           -8.6054     4.2521    -3.0324 H       
  51 H51           -7.8789     3.8004    -1.4715 H       
  52 H52           -6.8430     4.3591    -2.8068 H       
@<TRIPOS>BOND
   1    1    2 1
   2    1   23 1
   3    1    6 am
   4    2    3 1
   5    2   33 1
   6    2   34 1
   7    3    4 1
   8    3   35 1
   9    3   36 1
  10    4    5 1
  11    4    7 am
  12    5    6 1
  13    5   37 1
  14    5   38 1
  15    6   32 2
  16    7    8 1
  17    7   15 2
  18    8    9 ar
  19    8   13 ar
  20    9   10 ar
  21    9   39 1
  22   10   11 ar
  23   10   40 1
  24   11   12 ar
  25   11   24 1
  26   12   13 ar
  27   12   14 1
  28   13   41 1
  29   14   16 3
  30   16   17 1
  31   17   18 ar
  32   17   22 ar
  33   18   19 ar
  34   19   20 ar
  35   19   42 1
  36   20   21 ar
  37   20   43 1
  38   21   22 ar
  39   21   44 1
  40   22   45 1
  41   23   25 ar
  42   23   29 ar
  43   24   30 1
  44   25   26 ar
  45   25   46 1
  46   26   27 ar
  47   26   47 1
  48   27   28 ar
  49   27   31 1
  50   28   29 ar
  51   28   48 1
  52   29   49 1
  53   30   50 1
  54   30   51 1
  55   30   52 1

#	End of record

