#	Name: ASD01901624
#	Creating user name:	WinNT
#	Creation time:	15. 06. 2019 19:54

#	Modifying user name:	WinNT
#	Modification time:	15. 06. 2019 19:54

#	Program:	/corina/corina34_cracker 3.40 0067  02.08.2006

@<TRIPOS>MOLECULE
ASD01901624
  38   42    0    0    0
SMALL
NO_CHARGES


@<TRIPOS>ATOM
   1 C1             1.1663     1.7205     0.3182 C.3     
   2 N2             0.9891     0.2719     0.1900 N.pl3   
   3 N3             1.0768    -0.4651    -0.9972 N.2     
   4 C4             0.8659    -1.7251    -0.7502 C.2     
   5 C5             0.8769    -2.8342    -1.7705 C.3     
   6 C6             0.9570    -2.4363    -3.2456 C.3     
   7 C7             2.1712    -3.0601    -2.5545 C.3     
   8 C8             0.6247    -1.8814     0.6366 C.ar    
   9 C9             0.3451    -2.9890     1.4479 C.ar    
  10 C10            0.1557    -2.8209     2.7868 C.ar    
  11 C11            0.2374    -1.5516     3.3626 C.ar    
  12 N12            0.0403    -1.3991     4.7368 N.pl3   
  13 C13           -0.4855    -0.2054     5.2392 C.2     
  14 N14           -0.9284     0.8003     4.5327 N.2     
  15 N15           -1.3780     1.8196     5.3775 N.pl3   
  16 H16           -1.7515     2.6662     5.0864 H       
  17 C17           -1.2091     1.4349     6.6796 C.ar    
  18 N18           -1.4644     2.0139     7.8469 N.ar    
  19 C19           -1.1851     1.3800     8.9686 C.ar    
  20 C20           -0.6244     0.1088     8.9420 C.ar    
  21 N21           -0.3639    -0.4819     7.7936 N.ar    
  22 C22           -0.6456     0.1418     6.6529 C.ar    
  23 C23            0.5129    -0.4440     2.5808 C.ar    
  24 C24            0.7142    -0.5995     1.2132 C.ar    
  25 H25            2.2170     1.9430     0.5040 H       
  26 H26            0.8491     2.2083    -0.6035 H       
  27 H27            0.5646     2.0881     1.1494 H       
  28 H28            0.2822    -3.7119    -1.5172 H       
  29 H29            0.4149    -3.0521    -3.9632 H       
  30 H30            1.0018    -1.3723    -3.4782 H       
  31 H31            3.0147    -2.4065    -2.3323 H       
  32 H32            2.4278    -4.0863    -2.8173 H       
  33 H33            0.2794    -3.9751     1.0124 H       
  34 H34           -0.0600    -3.6774     3.4083 H       
  35 H35            0.2683    -2.1216     5.3426 H       
  36 H36           -1.3937     1.8531     9.9168 H       
  37 H37           -0.4003    -0.3982     9.8689 H       
  38 H38            0.5752     0.5359     3.0305 H       
@<TRIPOS>BOND
   1    1    2 1
   2    1   25 1
   3    1   26 1
   4    1   27 1
   5    2   24 1
   6    2    3 1
   7    3    4 2
   8    4    5 1
   9    4    8 1
  10    5    7 1
  11    5    6 1
  12    5   28 1
  13    6    7 1
  14    6   29 1
  15    6   30 1
  16    7   31 1
  17    7   32 1
  18    8   24 ar
  19    8    9 ar
  20    9   10 ar
  21    9   33 1
  22   10   11 ar
  23   10   34 1
  24   11   12 1
  25   11   23 ar
  26   12   13 1
  27   12   35 1
  28   13   22 1
  29   13   14 2
  30   14   15 1
  31   15   16 1
  32   15   17 1
  33   17   22 ar
  34   17   18 ar
  35   18   19 ar
  36   19   20 ar
  37   19   36 1
  38   20   21 ar
  39   20   37 1
  40   21   22 ar
  41   23   24 ar
  42   23   38 1

#	End of record

