#	Name: ASD01478055
#	Creating user name:	WinNT
#	Creation time:	15. 06. 2019 19:21

#	Modifying user name:	WinNT
#	Modification time:	15. 06. 2019 19:21

#	Program:	/corina/corina34_cracker 3.40 0067  02.08.2006

@<TRIPOS>MOLECULE
ASD01478055
  18   18    0    0    0
SMALL
NO_CHARGES


@<TRIPOS>ATOM
   1 C1            -0.0189     1.5411     0.0105 C.3     
   2 C2             0.0021    -0.0041     0.0020 C.3     
   3 O3             0.3762    -0.4782    -1.2272 O.3     
   4 C4             1.6807    -0.1288    -1.7089 C.3     
   5 O5             1.5980     1.1543    -2.2862 O.3     
   6 C6             1.9519     2.2441    -1.4245 C.3     
   7 C7             1.3997     2.0638    -0.0002 C.3     
   8 O8            -0.6876     2.0021     1.1863 O.3     
   9 H9            -0.5459     1.9023    -0.8726 H       
  10 H10            0.7086    -0.3574     0.7531 H       
  11 H11           -0.9932    -0.3777     0.2429 H       
  12 H12            2.3888    -0.1157    -0.8803 H       
  13 H13            2.0027    -0.8509    -2.4591 H       
  14 H14            3.0383     2.3179    -1.3758 H       
  15 H15            1.5549     3.1689    -1.8431 H       
  16 H16            1.4247     3.0257     0.5118 H       
  17 H17            2.0375     1.3632     0.5388 H       
  18 H18           -1.6045     1.7039     1.2597 H       
@<TRIPOS>BOND
   1    1    2 1
   2    1    7 1
   3    1    8 1
   4    1    9 1
   5    2    3 1
   6    2   10 1
   7    2   11 1
   8    3    4 1
   9    4    5 1
  10    4   12 1
  11    4   13 1
  12    5    6 1
  13    6    7 1
  14    6   14 1
  15    6   15 1
  16    7   16 1
  17    7   17 1
  18    8   18 1

#	End of record

