#	Name: ASD01140319
#	Creating user name:	WinNT
#	Creation time:	15. 06. 2019 19:00

#	Modifying user name:	WinNT
#	Modification time:	15. 06. 2019 19:00

#	Program:	/corina/corina34_cracker 3.40 0067  02.08.2006

@<TRIPOS>MOLECULE
ASD01140319
  58   61    0    0    0
SMALL
NO_CHARGES


@<TRIPOS>ATOM
   1 C1            -0.0169     1.3931     0.0097 C.ar    
   2 C2             0.0021    -0.0041     0.0020 C.ar    
   3 C3             1.2148    -0.6812    -0.0253 C.ar    
   4 C4             2.4233     0.0274    -0.0447 C.ar    
   5 C5             2.3884     1.4241    -0.0129 C.ar    
   6 C6             1.1680     2.0938     0.0022 C.ar    
   7 C7             3.6681    -0.7443    -0.1294 C.2     
   8 N8             4.7709    -0.5334     0.4968 N.2     
   9 C9             4.9166     0.5681     1.4554 C.3     
  10 C10            4.6885     1.8576     0.7099 C.2     
  11 N11            3.5571     2.1889     0.0382 N.pl3   
  12 C12            3.7642     3.4030    -0.5405 C.2     
  13 C13            5.5562     2.8972     0.5733 C.2     
  14 N14            4.9506     3.8293    -0.2115 N.2     
  15 C15            3.8804     0.4243     2.5719 C.3     
  16 C16            3.6523    -1.9085    -1.0480 C.ar    
  17 N17            2.5505    -2.1929    -1.7309 N.ar    
  18 C18            4.7957    -2.6908    -1.1911 C.ar    
  19 C19            4.7658    -3.7752    -2.0530 C.ar    
  20 C20            3.5924    -4.0400    -2.7426 C.ar    
  21 C21            2.4948    -3.2165    -2.5560 C.ar    
  22 C22           -1.2277    -0.7374     0.0228 C.1     
  23 C23           -2.2359    -1.3387     0.0398 C.1     
  24 Si24          -3.8676    -2.3117     0.0673 Si      
  25 C25           -3.5018    -4.1383     0.0504 C.3     
  26 C26           -4.8201    -1.8834     1.6100 C.3     
  27 C27           -4.8809    -1.8675    -1.4316 C.3     
  28 C28            6.9002     2.9954     1.1647 C.2     
  29 O29            7.3295     2.0894     1.8518 O.2     
  30 O30            7.6551     4.0901     0.9443 O.3     
  31 C31            8.9703     4.1186     1.5589 C.3     
  32 C32            9.6733     5.4290     1.1990 C.3     
  33 H33           -0.9586     1.9218     0.0170 H       
  34 H34            1.2261    -1.7611    -0.0313 H       
  35 H35            1.1507     3.1736     0.0080 H       
  36 H36            5.9209     0.5589     1.8790 H       
  37 H37            3.0602     3.9275    -1.1696 H       
  38 H38            4.0310    -0.5242     3.0874 H       
  39 H39            3.9934     1.2449     3.2804 H       
  40 H40            2.8785     0.4499     2.1433 H       
  41 H41            5.6931    -2.4553    -0.6383 H       
  42 H42            5.6368    -4.3999    -2.1849 H       
  43 H43            3.5365    -4.8775    -3.4221 H       
  44 H44            1.5791    -3.4200    -3.0913 H       
  45 H45           -2.9089    -4.3982     0.9274 H       
  46 H46           -4.4378    -4.6965     0.0662 H       
  47 H47           -2.9445    -4.3889    -0.8522 H       
  48 H48           -5.0342    -0.8146     1.6199 H       
  49 H49           -5.7562    -2.4416     1.6258 H       
  50 H50           -4.2273    -2.1433     2.4870 H       
  51 H51           -4.3236    -2.1181    -2.3342 H       
  52 H52           -5.8170    -2.4257    -1.4158 H       
  53 H53           -5.0950    -0.7987    -1.4217 H       
  54 H54            8.8670     4.0472     2.6417 H       
  55 H55            9.5602     3.2777     1.1940 H       
  56 H56            9.7766     5.5004     0.1162 H       
  57 H57            9.0834     6.2699     1.5639 H       
  58 H58           10.6606     5.4504     1.6604 H       
@<TRIPOS>BOND
   1    1    2 ar
   2    1    6 ar
   3    1   33 1
   4    2    3 ar
   5    2   22 1
   6    3    4 ar
   7    3   34 1
   8    4    5 ar
   9    4    7 1
  10    5    6 ar
  11    5   11 1
  12    6   35 1
  13    7    8 2
  14    7   16 1
  15    8    9 1
  16    9   10 1
  17    9   15 1
  18    9   36 1
  19   10   11 1
  20   10   13 2
  21   11   12 1
  22   12   14 2
  23   12   37 1
  24   13   14 1
  25   13   28 1
  26   15   38 1
  27   15   39 1
  28   15   40 1
  29   16   17 ar
  30   16   18 ar
  31   17   21 ar
  32   18   19 ar
  33   18   41 1
  34   19   20 ar
  35   19   42 1
  36   20   21 ar
  37   20   43 1
  38   21   44 1
  39   22   23 3
  40   23   24 1
  41   24   25 1
  42   24   26 1
  43   24   27 1
  44   25   45 1
  45   25   46 1
  46   25   47 1
  47   26   48 1
  48   26   49 1
  49   26   50 1
  50   27   51 1
  51   27   52 1
  52   27   53 1
  53   28   29 2
  54   28   30 1
  55   30   31 1
  56   31   32 1
  57   31   54 1
  58   31   55 1
  59   32   56 1
  60   32   57 1
  61   32   58 1

#	End of record

