#	Name: ASD08150457
#	Creating user name:	WinNT
#	Creation time:	15. 06. 2019 21:16

#	Modifying user name:	WinNT
#	Modification time:	15. 06. 2019 21:16

#	Program:	/corina/corina34_cracker 3.40 0067  02.08.2006

@<TRIPOS>MOLECULE
ASD08150457
  35   37    0    0    0
SMALL
NO_CHARGES


@<TRIPOS>ATOM
   1 N1            -0.0169     1.3961     0.0097 N.pl3   
   2 N2             0.0021    -0.0041     0.0020 N.2     
   3 C3             1.2345    -0.4264    -0.0120 C.2     
   4 C4             2.0963     0.6917    -0.0142 C.ar    
   5 C5             3.5009     0.8376    -0.0268 C.ar    
   6 C6             4.0549     2.1103    -0.0253 C.ar    
   7 C7             3.2390     3.2299    -0.0115 C.ar    
   8 C8             1.8668     3.1022     0.0013 C.ar    
   9 C9             1.2818     1.8385    -0.0003 C.ar    
  10 O10            5.8624    -0.4630    -0.0557 O.3     
  11 B11            4.4281    -0.4292    -0.0419 Du      
  12 O12            4.0269    -1.8066    -0.0445 O.3     
  13 C13            4.9661    -2.4623     0.8334 C.3     
  14 C14            6.2106    -1.5514     0.8257 C.3     
  15 C15            7.4233    -2.3100     0.2828 C.3     
  16 C16            6.4955    -1.0263     2.2343 C.3     
  17 C17            4.3908    -2.5671     2.2472 C.3     
  18 C18            5.3185    -3.8507     0.2957 C.3     
  19 H19           -0.8095     1.9553     0.0167 H       
  20 H20            1.5453    -1.4607    -0.0200 H       
  21 H21            5.1283     2.2284    -0.0345 H       
  22 H22            3.6834     4.2142    -0.0105 H       
  23 H23            1.2437     3.9843     0.0127 H       
  24 H24            8.2789    -1.6369     0.2296 H       
  25 H25            7.6572    -3.1432     0.9455 H       
  26 H26            7.1977    -2.6904    -0.7134 H       
  27 H27            5.6169    -0.5031     2.6117 H       
  28 H28            6.7314    -1.8622     2.8929 H       
  29 H29            7.3413    -0.3395     2.2018 H       
  30 H30            3.4802    -3.1659     2.2255 H       
  31 H31            5.1216    -3.0407     2.9027 H       
  32 H32            4.1606    -1.5692     2.6206 H       
  33 H33            5.7413    -3.7565    -0.7045 H       
  34 H34            6.0473    -4.3216     0.9554 H       
  35 H35            4.4179    -4.4632     0.2532 H       
@<TRIPOS>BOND
   1    1    2 1
   2    1    9 1
   3    1   19 1
   4    2    3 2
   5    3    4 1
   6    3   20 1
   7    4    5 ar
   8    4    9 ar
   9    5    6 ar
  10    5   11 1
  11    6    7 ar
  12    6   21 1
  13    7    8 ar
  14    7   22 1
  15    8    9 ar
  16    8   23 1
  17   10   11 1
  18   10   14 1
  19   11   12 1
  20   12   13 1
  21   13   14 1
  22   13   17 1
  23   13   18 1
  24   14   15 1
  25   14   16 1
  26   15   24 1
  27   15   25 1
  28   15   26 1
  29   16   27 1
  30   16   28 1
  31   16   29 1
  32   17   30 1
  33   17   31 1
  34   17   32 1
  35   18   33 1
  36   18   34 1
  37   18   35 1

#	End of record

