#	Name: ASD05763007
#	Creating user name:	WinNT
#	Creation time:	15. 06. 2019 21:03

#	Modifying user name:	WinNT
#	Modification time:	15. 06. 2019 21:03

#	Program:	/corina/corina34_cracker 3.40 0067  02.08.2006

@<TRIPOS>MOLECULE
ASD05763007
 101  101    0    0    0
SMALL
NO_CHARGES


@<TRIPOS>ATOM
   1 C1            -0.1389     0.2050    -0.4883 C.2     
   2 O2            -0.4142    -0.9715    -0.3833 O.2     
   3 N3             2.1912    -0.4554    -0.2901 N.3     
   4 C4             1.2909     0.6275    -0.7079 C.3     
   5 C5             1.5111     0.9301    -2.1914 C.3     
   6 C6             2.9251     1.4777    -2.3958 C.3     
   7 C7             3.1453     1.7803    -3.8793 C.3     
   8 N8             4.4992     2.3047    -4.0750 N.pl3   
   9 C9             4.9271     2.6497    -5.3347 C.2     
  10 N10            4.1654     2.4228    -6.3658 N.2     
  11 N11            6.1656     3.2373    -5.5068 N.am    
  12 C12           -3.4266     1.7810    -0.7532 C.2     
  13 O13           -2.9682     2.7801    -1.2656 O.2     
  14 N14           -1.1124     1.1341    -0.4141 N.am    
  15 C15           -2.5031     0.7230    -0.2066 C.3     
  16 C16           -2.7637     0.5424     1.2902 C.3     
  17 C17           -1.9159    -0.6161     1.8193 C.3     
  18 C18           -2.1764    -0.7967     3.3161 C.3     
  19 N19           -1.3647    -1.9060     3.8227 N.pl3   
  20 C20           -1.4321    -2.2568     5.1504 C.2     
  21 N21           -2.2183    -1.6025     5.9582 N.2     
  22 N22           -0.6703    -3.2978     5.6258 N.pl3   
  23 C23           -6.9866     2.5698    -0.4937 C.2     
  24 O24           -7.2046     1.6699     0.2896 O.2     
  25 N25           -4.7619     1.6170    -0.6727 N.am    
  26 C26           -5.6596     2.6455    -1.2040 C.3     
  27 C27           -5.8692     2.4152    -2.7020 C.3     
  28 C28           -4.5481     2.6354    -3.4416 C.3     
  29 C29           -6.3514     0.9820    -2.9350 C.3     
  30 C30          -10.2690     4.1095    -0.9608 C.2     
  31 O31           -9.9154     4.6907    -1.9648 O.2     
  32 N32           -7.9309     3.5022    -0.7287 N.am    
  33 C33           -9.2583     3.3693    -0.1231 C.3     
  34 C34           -9.2361     3.9589     1.2885 C.3     
  35 O35           -8.9938     5.3652     1.2136 O.3     
  36 C36          -12.5666     6.2974    -1.0071 C.2     
  37 O37          -11.8340     6.6911    -0.1307 O.2     
  38 N38          -11.5659     4.1254    -0.5943 N.am    
  39 C39          -12.5484     4.8449    -1.4086 C.3     
  40 C40          -13.9355     4.2377    -1.1890 C.3     
  41 C41          -13.9511     2.8215    -1.7041 C.ar    
  42 C42          -13.6148     1.7767    -0.8638 C.ar    
  43 C43          -13.6292     0.4777    -1.3363 C.ar    
  44 C44          -13.9803     0.2235    -2.6489 C.ar    
  45 C45          -14.3174     1.2683    -3.4890 C.ar    
  46 C46          -14.3073     2.5669    -3.0153 C.ar    
  47 O47          -13.3967     7.1536    -1.6232 O.3     
  48 O48            6.5393     3.2581    -3.3202 O.2     
  49 C49            6.9110     3.5651    -4.4328 C.2     
  50 C50            8.2065     4.3132    -4.6147 C.3     
  51 H51            2.0170    -1.2956    -0.8210 H       
  52 H52            3.1568    -0.1728    -0.3670 H       
  53 H53            1.5001     1.5211    -0.1199 H       
  54 H54            1.3886     0.0151    -2.7710 H       
  55 H55            0.7833     1.6705    -2.5232 H       
  56 H56            3.0476     2.3927    -1.8162 H       
  57 H57            3.6530     0.7373    -2.0640 H       
  58 H58            3.0228     0.8653    -4.4588 H       
  59 H59            2.4175     2.5207    -4.2111 H       
  60 H60            5.0936     2.4084    -3.3155 H       
  61 H61            4.4347     2.7315    -7.2450 H       
  62 H62            6.4987     3.4140    -6.4005 H       
  63 H63           -0.8922     2.0750    -0.4980 H       
  64 H64           -2.6843    -0.2196    -0.7233 H       
  65 H65           -2.4977     1.4580     1.8183 H       
  66 H66           -3.8192     0.3234     1.4514 H       
  67 H67           -2.1818    -1.5318     1.2911 H       
  68 H68           -0.8603    -0.3972     1.6581 H       
  69 H69           -1.9105     0.1189     3.8443 H       
  70 H70           -3.2320    -1.0157     3.4773 H       
  71 H71           -0.7796    -2.3930     3.2215 H       
  72 H72           -2.2658    -1.8500     6.8949 H       
  73 H73           -0.0852    -3.7848     5.0246 H       
  74 H74           -0.7179    -3.5454     6.5625 H       
  75 H75           -5.1285     0.8179    -0.2628 H       
  76 H76           -5.2185     3.6297    -1.0460 H       
  77 H77           -6.6162     3.1152    -3.0762 H       
  78 H78           -3.8327     1.8688    -3.1437 H       
  79 H79           -4.7189     2.5749    -4.5164 H       
  80 H80           -4.1514     3.6194    -3.1916 H       
  81 H81           -7.2926     0.8251    -2.4081 H       
  82 H82           -6.5007     0.8178    -4.0022 H       
  83 H83           -5.6044     0.2819    -2.5608 H       
  84 H84           -7.7318     4.2613    -1.2989 H       
  85 H85           -9.5306     2.3151    -0.0724 H       
  86 H86          -10.1968     3.7810     1.7717 H       
  87 H87           -8.4444     3.4842     1.8682 H       
  88 H88           -8.9665     5.8060     2.0739 H       
  89 H89          -11.8487     3.6606     0.2087 H       
  90 H90          -12.2781     4.7623    -2.4613 H       
  91 H91          -14.1685     4.2396    -0.1242 H       
  92 H92          -14.6793     4.8275    -1.7248 H       
  93 H93          -13.3405     1.9753     0.1617 H       
  94 H94          -13.3657    -0.3386    -0.6800 H       
  95 H95          -13.9908    -0.7914    -3.0183 H       
  96 H96          -14.5914     1.0697    -4.5146 H       
  97 H97          -14.5743     3.3828    -3.6705 H       
  98 H98          -13.3725     8.0752    -1.3313 H       
  99 H99            8.3727     4.4994    -5.6757 H       
 100 H100           8.1554     5.2631    -4.0827 H       
 101 H101           9.0287     3.7180    -4.2172 H       
@<TRIPOS>BOND
   1    1    2 2
   2    1    4 1
   3    1   14 am
   4    3    4 1
   5    3   51 1
   6    3   52 1
   7    4    5 1
   8    4   53 1
   9    5    6 1
  10    5   54 1
  11    5   55 1
  12    6    7 1
  13    6   56 1
  14    6   57 1
  15    7    8 1
  16    7   58 1
  17    7   59 1
  18    8    9 1
  19    8   60 1
  20    9   10 2
  21    9   11 1
  22   10   61 1
  23   11   49 am
  24   11   62 1
  25   12   13 2
  26   12   15 1
  27   12   25 am
  28   14   15 1
  29   14   63 1
  30   15   16 1
  31   15   64 1
  32   16   17 1
  33   16   65 1
  34   16   66 1
  35   17   18 1
  36   17   67 1
  37   17   68 1
  38   18   19 1
  39   18   69 1
  40   18   70 1
  41   19   20 1
  42   19   71 1
  43   20   21 2
  44   20   22 1
  45   21   72 1
  46   22   73 1
  47   22   74 1
  48   23   24 2
  49   23   26 1
  50   23   32 am
  51   25   26 1
  52   25   75 1
  53   26   27 1
  54   26   76 1
  55   27   28 1
  56   27   29 1
  57   27   77 1
  58   28   78 1
  59   28   79 1
  60   28   80 1
  61   29   81 1
  62   29   82 1
  63   29   83 1
  64   30   31 2
  65   30   33 1
  66   30   38 am
  67   32   33 1
  68   32   84 1
  69   33   34 1
  70   33   85 1
  71   34   35 1
  72   34   86 1
  73   34   87 1
  74   35   88 1
  75   36   37 2
  76   36   39 1
  77   36   47 1
  78   38   39 1
  79   38   89 1
  80   39   40 1
  81   39   90 1
  82   40   41 1
  83   40   91 1
  84   40   92 1
  85   41   42 ar
  86   41   46 ar
  87   42   43 ar
  88   42   93 1
  89   43   44 ar
  90   43   94 1
  91   44   45 ar
  92   44   95 1
  93   45   46 ar
  94   45   96 1
  95   46   97 1
  96   47   98 1
  97   48   49 2
  98   49   50 1
  99   50   99 1
 100   50  100 1
 101   50  101 1

#	End of record

