#	Name: ASD01810693
#	Creating user name:	WinNT
#	Creation time:	15. 06. 2019 19:25

#	Modifying user name:	WinNT
#	Modification time:	15. 06. 2019 19:25

#	Program:	/corina/corina34_cracker 3.40 0067  02.08.2006

@<TRIPOS>MOLECULE
ASD01810693
  50   53    0    0    0
SMALL
NO_CHARGES


@<TRIPOS>ATOM
   1 N1             0.0358     1.3842     0.0217 N.pl3   
   2 N2             0.6487     1.2687    -1.0961 N.2     
   3 C3             1.8623     0.7799    -1.2271 C.2     
   4 C4             2.5919     0.3265    -0.0279 C.2     
   5 C5             1.8799     0.4624     1.2565 C.ar    
   6 C6             2.4511     0.0732     2.4651 C.ar    
   7 C7             1.7422     0.2229     3.6255 C.ar    
   8 C8             0.4615     0.7581     3.6050 C.ar    
   9 C9            -0.1222     1.1492     2.4187 C.ar    
  10 C10            0.5815     1.0069     1.2243 C.ar    
  11 C11            2.4869     0.6857    -2.5579 C.2     
  12 O12            3.6089     0.2329    -2.6719 O.2     
  13 O13            1.8140     1.1016    -3.6491 O.3     
  14 O14            3.7180    -0.1343    -0.0947 O.2     
  15 C15           -1.3141     1.9534     0.0188 C.3     
  16 C16           -2.3897     3.0122    -3.9327 C.ar    
  17 C17           -2.7001     1.7308    -3.4822 C.ar    
  18 C18           -2.3542     1.3696    -2.1917 C.ar    
  19 C19           -1.7088     2.3032    -1.3929 C.ar    
  20 C20           -1.4318     3.5573    -1.9045 C.ar    
  21 N21           -1.7718     3.8753    -3.1372 N.ar    
  22 C22           -3.4838     2.5565    -6.1325 C.ar    
  23 C23           -2.7482     3.4128    -5.3154 C.ar    
  24 C24           -2.3541     4.6551    -5.8196 C.ar    
  25 C25           -2.7142     4.9819    -7.1159 C.ar    
  26 C26           -3.4453     4.0770    -7.8633 C.ar    
  27 N27           -3.8035     2.9114    -7.3599 N.ar    
  28 C28           -3.8396     4.4280    -9.2748 C.3     
  29 Cl29          -1.7253     1.8154     2.4129 Cl      
  30 C30            2.4911     0.9789    -4.9277 C.3     
  31 C31            1.5779     1.4975    -6.0403 C.3     
  32 H32            3.4469    -0.3443     2.4863 H       
  33 H33            2.1822    -0.0779     4.5648 H       
  34 H34           -0.0848     0.8693     4.5300 H       
  35 H35           -2.0167     1.2243     0.4224 H       
  36 H36           -1.3305     2.8529     0.6341 H       
  37 H37           -3.2035     1.0292    -4.1308 H       
  38 H38           -2.5821     0.3836    -1.8144 H       
  39 H39           -0.9297     4.2862    -1.2856 H       
  40 H40           -3.7911     1.5915    -5.7572 H       
  41 H41           -1.7835     5.3431    -5.2133 H       
  42 H42           -2.4274     5.9334    -7.5387 H       
  43 H43           -3.0624     4.0950    -9.9626 H       
  44 H44           -4.7798     3.9353    -9.5226 H       
  45 H45           -3.9619     5.5078    -9.3600 H       
  46 H46            3.4103     1.5644    -4.9096 H       
  47 H47            2.7309    -0.0682    -5.1129 H       
  48 H48            2.0862     1.4054    -7.0001 H       
  49 H49            0.6587     0.9119    -6.0584 H       
  50 H50            1.3381     2.5445    -5.8551 H       
@<TRIPOS>BOND
   1    1    2 1
   2    1   10 1
   3    1   15 1
   4    2    3 2
   5    3    4 1
   6    3   11 1
   7    4    5 1
   8    4   14 2
   9    5    6 ar
  10    5   10 ar
  11    6    7 ar
  12    6   32 1
  13    7    8 ar
  14    7   33 1
  15    8    9 ar
  16    8   34 1
  17    9   10 ar
  18    9   29 1
  19   11   12 2
  20   11   13 1
  21   13   30 1
  22   15   19 1
  23   15   35 1
  24   15   36 1
  25   16   17 ar
  26   16   21 ar
  27   16   23 1
  28   17   18 ar
  29   17   37 1
  30   18   19 ar
  31   18   38 1
  32   19   20 ar
  33   20   21 ar
  34   20   39 1
  35   22   23 ar
  36   22   27 ar
  37   22   40 1
  38   23   24 ar
  39   24   25 ar
  40   24   41 1
  41   25   26 ar
  42   25   42 1
  43   26   27 ar
  44   26   28 1
  45   28   43 1
  46   28   44 1
  47   28   45 1
  48   30   31 1
  49   30   46 1
  50   30   47 1
  51   31   48 1
  52   31   49 1
  53   31   50 1

#	End of record

