#	Name: ASD00310353
#	Creating user name:	WinNT
#	Creation time:	15. 06. 2019 18:34

#	Modifying user name:	WinNT
#	Modification time:	15. 06. 2019 18:34

#	Program:	/corina/corina34_cracker 3.40 0067  02.08.2006

@<TRIPOS>MOLECULE
ASD00310353
  21   20    0    0    0
SMALL
NO_CHARGES


@<TRIPOS>ATOM
   1 C1            -0.0763     1.3625    -0.4597 C.2     
   2 N2            -0.0046     0.0004    -0.2530 N.pl3   
   3 N3             1.0734     2.0883    -0.6627 N.pl3   
   4 N4            -1.2336     1.9600    -0.4678 N.2     
   5 C5             0.9908     3.5076    -1.0165 C.3     
   6 C6             2.3812     1.4426    -0.5253 C.3     
   7 C7            -1.1370    -0.7050     0.0784 C.2     
   8 N8            -2.3377    -0.0289     0.3143 N.4     
   9 N9            -1.0916    -1.9931     0.1719 N.2     
  10 H10            0.8448    -0.4596    -0.3415 H       
  11 H11           -1.2840     2.9177    -0.6131 H       
  12 H12            0.9888     4.1091    -0.1075 H       
  13 H13            1.8495     3.7796    -1.6303 H       
  14 H14            0.0726     3.6900    -1.5749 H       
  15 H15            2.2429     0.3764    -0.3457 H       
  16 H16            2.9549     1.5853    -1.4411 H       
  17 H17            2.9188     1.8856     0.3130 H       
  18 H18           -2.8039     0.1448    -0.5635 H       
  19 H19           -2.9309    -0.5928     0.9044 H       
  20 H20           -2.1449     0.8493     0.7722 H       
  21 H21           -1.8906    -2.4909     0.4057 H       
@<TRIPOS>BOND
   1    1    2 1
   2    1    3 1
   3    1    4 2
   4    2    7 1
   5    2   10 1
   6    3    5 1
   7    3    6 1
   8    4   11 1
   9    5   12 1
  10    5   13 1
  11    5   14 1
  12    6   15 1
  13    6   16 1
  14    6   17 1
  15    7    8 1
  16    7    9 2
  17    8   18 1
  18    8   19 1
  19    8   20 1
  20    9   21 1

#	End of record

