#	Name: ASD01881676
#	Creating user name:	WinNT
#	Creation time:	15. 06. 2019 19:43

#	Modifying user name:	WinNT
#	Modification time:	15. 06. 2019 19:43

#	Program:	/corina/corina34_cracker 3.40 0067  02.08.2006

@<TRIPOS>MOLECULE
ASD01881676
  31   32    0    0    0
SMALL
NO_CHARGES


@<TRIPOS>ATOM
   1 C1            -0.0184     1.5028     0.0103 C.2     
   2 C2             0.0021    -0.0041     0.0020 C.3     
   3 O3             1.0236     2.1234     0.0037 O.2     
   4 N4            -1.1946     2.1607     0.0195 N.am    
   5 C5            -1.2145     3.6256     0.0275 C.3     
   6 C6            -2.4566     4.3183    -0.5364 C.3     
   7 C7            -2.2019     4.3135     0.9723 C.3     
   8 N8             1.3935    -0.4748    -0.0138 N.3     
   9 C9             1.4526    -1.9426    -0.0222 C.3     
  10 C10            2.8924    -2.3873    -0.0384 C.ar    
  11 C11            3.5640    -2.5976     1.1515 C.ar    
  12 C12            4.8845    -3.0059     1.1372 C.ar    
  13 C13            5.5339    -3.2041    -0.0680 C.ar    
  14 C14            4.8614    -2.9935    -1.2583 C.ar    
  15 C15            3.5395    -2.5903    -1.2430 C.ar    
  16 Br16           7.3406    -3.7621    -0.0882 Br      
  17 H17           -0.4983    -0.3791     0.8948 H       
  18 H18           -0.5153    -0.3696    -0.8850 H       
  19 H19           -2.0280     1.6644     0.0207 H       
  20 H20           -0.2513     4.1097    -0.1339 H       
  21 H21           -2.3107     5.2584    -1.0684 H       
  22 H22           -3.2590     3.6842    -0.9134 H       
  23 H23           -2.8368     3.6762     1.5878 H       
  24 H24           -1.8885     5.2504     1.4328 H       
  25 H25            1.8972    -0.0881    -0.7979 H       
  26 H26            0.9623    -2.3311     0.8704 H       
  27 H27            0.9453    -2.3216    -0.9095 H       
  28 H28            3.0570    -2.4425     2.0924 H       
  29 H29            5.4092    -3.1699     2.0668 H       
  30 H30            5.3682    -3.1477    -2.1995 H       
  31 H31            3.0131    -2.4298    -2.1724 H       
@<TRIPOS>BOND
   1    1    2 1
   2    1    3 2
   3    1    4 am
   4    2    8 1
   5    2   17 1
   6    2   18 1
   7    4    5 1
   8    4   19 1
   9    5    6 1
  10    5    7 1
  11    5   20 1
  12    6    7 1
  13    6   21 1
  14    6   22 1
  15    7   23 1
  16    7   24 1
  17    8    9 1
  18    8   25 1
  19    9   10 1
  20    9   26 1
  21    9   27 1
  22   10   11 ar
  23   10   15 ar
  24   11   12 ar
  25   11   28 1
  26   12   13 ar
  27   12   29 1
  28   13   14 ar
  29   13   16 1
  30   14   15 ar
  31   14   30 1
  32   15   31 1

#	End of record

