#	Name: ASD01810361
#	Creating user name:	WinNT
#	Creation time:	15. 06. 2019 19:24

#	Modifying user name:	WinNT
#	Modification time:	15. 06. 2019 19:24

#	Program:	/corina/corina34_cracker 3.40 0067  02.08.2006

@<TRIPOS>MOLECULE
ASD01810361
  75   80    0    0    0
SMALL
NO_CHARGES


@<TRIPOS>ATOM
   1 C1            -0.0173     1.4248     0.0099 C.3     
   2 O2             0.0021    -0.0041     0.0020 O.3     
   3 C3             0.6237    -0.6163     1.0380 C.ar    
   4 C4            -0.0881    -0.9519     2.1872 C.ar    
   5 C5             0.5576    -1.5881     3.2639 C.ar    
   6 C6             1.8791    -1.8859     3.2063 C.ar    
   7 C7             2.6298    -1.5604     2.0597 C.ar    
   8 C8             1.9973    -0.9261     0.9625 C.ar    
   9 C9             2.7515    -0.6049    -0.1776 C.ar    
  10 C10            4.0792    -0.9064    -0.2148 C.ar    
  11 C11            4.7016    -1.5306     0.8635 C.ar    
  12 C12            3.9994    -1.8614     1.9827 C.ar    
  13 C13            2.5471    -2.5668     4.3730 C.3     
  14 N14            3.2709    -1.5698     5.1730 N.3     
  15 C15            3.7353    -2.1487     6.4414 C.3     
  16 C16            4.5505    -1.1043     7.2076 C.3     
  17 N17            3.7187     0.0832     7.4473 N.3     
  18 C18            3.2544     0.6621     6.1789 C.3     
  19 C19            2.4391    -0.3823     5.4127 C.3     
  20 C20            4.4046     1.0279     8.2052 C.ar    
  21 N21            5.6485     0.7665     8.5991 N.ar    
  22 C22            6.3568     1.6079     9.3152 C.ar    
  23 C23            5.8098     2.8420     9.6980 C.ar    
  24 C24            4.4842     3.1568     9.2963 C.ar    
  25 C25            3.7807     2.2166     8.5263 C.ar    
  26 C26            3.9212     4.3866     9.6707 C.ar    
  27 C27            4.6542     5.2608    10.4141 C.ar    
  28 C28            5.9554     4.9530    10.8089 C.ar    
  29 C29            6.5339     3.7698    10.4643 C.ar    
  30 C30           -1.5249    -0.6388     2.2763 C.2     
  31 O31           -2.0862    -0.0888     1.3481 O.2     
  32 N32           -2.2174    -0.9619     3.3866 N.am    
  33 C33           -3.6462    -0.6505     3.4752 C.3     
  34 C34           -4.4543    -1.7734     2.8218 C.3     
  35 C35           -5.9465    -1.4482     2.9144 C.3     
  36 C36           -6.3499    -1.3185     4.3846 C.3     
  37 C37           -5.5418    -0.1956     5.0380 C.3     
  38 C38           -4.0496    -0.5207     4.9454 C.3     
  39 O39           -3.2948     0.5280     5.5556 O.3     
  40 H40            1.0053     1.8021     0.0021 H       
  41 H41           -0.5445     1.7859    -0.8732 H       
  42 H42           -0.5275     1.7763     0.9067 H       
  43 H43           -0.0074    -1.8423     4.1486 H       
  44 H44            2.2810    -0.1214    -1.0210 H       
  45 H45            4.6572    -0.6584    -1.0928 H       
  46 H46            5.7556    -1.7600     0.8096 H       
  47 H47            4.4957    -2.3451     2.8110 H       
  48 H48            1.7918    -3.0507     4.9923 H       
  49 H49            3.2483    -3.3152     4.0040 H       
  50 H50            2.8756    -2.4497     7.0401 H       
  51 H51            4.3592    -3.0188     6.2371 H       
  52 H52            4.8716    -1.5220     8.1618 H       
  53 H53            5.4250    -0.8234     6.6206 H       
  54 H54            2.6304     1.5323     6.3831 H       
  55 H55            4.1140     0.9632     5.5802 H       
  56 H56            2.1180     0.0355     4.4585 H       
  57 H57            1.5647    -0.6632     5.9997 H       
  58 H58            7.3629     1.3496     9.6109 H       
  59 H59            2.7708     2.4158     8.1994 H       
  60 H60            2.9144     4.6379     9.3712 H       
  61 H61            4.2211     6.2074    10.7019 H       
  62 H62            6.5140     5.6653    11.3979 H       
  63 H63            7.5427     3.5461    10.7782 H       
  64 H64           -1.7698    -1.4005     4.1269 H       
  65 H65           -3.8461     0.2886     2.9593 H       
  66 H66           -4.1670    -1.8658     1.7745 H       
  67 H67           -4.2544    -2.7125     3.3377 H       
  68 H68           -6.1464    -0.5091     2.3985 H       
  69 H69           -6.5223    -2.2482     2.4489 H       
  70 H70           -7.4130    -1.0868     4.4505 H       
  71 H71           -6.1500    -2.2576     4.9004 H       
  72 H72           -5.7417     0.7436     4.5221 H       
  73 H73           -5.8292    -0.1031     6.0853 H       
  74 H74           -3.8497    -1.4599     5.4612 H       
  75 H75           -3.4991     0.6669     6.4906 H       
@<TRIPOS>BOND
   1    1    2 1
   2    1   40 1
   3    1   41 1
   4    1   42 1
   5    2    3 1
   6    3    4 ar
   7    3    8 ar
   8    4    5 ar
   9    4   30 1
  10    5    6 ar
  11    5   43 1
  12    6    7 ar
  13    6   13 1
  14    7    8 ar
  15    7   12 ar
  16    8    9 ar
  17    9   10 ar
  18    9   44 1
  19   10   11 ar
  20   10   45 1
  21   11   12 ar
  22   11   46 1
  23   12   47 1
  24   13   14 1
  25   13   48 1
  26   13   49 1
  27   14   15 1
  28   14   19 1
  29   15   16 1
  30   15   50 1
  31   15   51 1
  32   16   17 1
  33   16   52 1
  34   16   53 1
  35   17   18 1
  36   17   20 1
  37   18   19 1
  38   18   54 1
  39   18   55 1
  40   19   56 1
  41   19   57 1
  42   20   21 ar
  43   20   25 ar
  44   21   22 ar
  45   22   23 ar
  46   22   58 1
  47   23   24 ar
  48   23   29 ar
  49   24   25 ar
  50   24   26 ar
  51   25   59 1
  52   26   27 ar
  53   26   60 1
  54   27   28 ar
  55   27   61 1
  56   28   29 ar
  57   28   62 1
  58   29   63 1
  59   30   31 2
  60   30   32 am
  61   32   33 1
  62   32   64 1
  63   33   34 1
  64   33   38 1
  65   33   65 1
  66   34   35 1
  67   34   66 1
  68   34   67 1
  69   35   36 1
  70   35   68 1
  71   35   69 1
  72   36   37 1
  73   36   70 1
  74   36   71 1
  75   37   38 1
  76   37   72 1
  77   37   73 1
  78   38   39 1
  79   38   74 1
  80   39   75 1

#	End of record

