#	Name: ASD01814084
#	Creating user name:	WinNT
#	Creation time:	15. 06. 2019 19:31

#	Modifying user name:	WinNT
#	Modification time:	15. 06. 2019 19:31

#	Program:	/corina/corina34_cracker 3.40 0067  02.08.2006

@<TRIPOS>MOLECULE
ASD01814084
  42   45    0    0    0
SMALL
NO_CHARGES


@<TRIPOS>ATOM
   1 C1             1.1557     2.2514    -0.5136 C.ar    
   2 C2             0.7792     0.9162    -0.4985 C.ar    
   3 C3             1.7218    -0.0797    -0.3471 C.ar    
   4 C4             3.0689     0.2527    -0.2071 C.ar    
   5 C5             3.4455     1.6060    -0.2230 C.ar    
   6 C6             2.4808     2.6017    -0.3769 C.ar    
   7 N7             4.0212    -0.7325    -0.0539 N.pl3   
   8 C8             5.3256    -0.4652     0.0854 C.2     
   9 C9             5.8161     0.8253     0.0858 C.2     
  10 C10            4.8734     1.9442    -0.0741 C.2     
  11 O11            5.2561     3.1010    -0.0806 O.2     
  12 C12            7.2555     1.0775     0.2425 C.2     
  13 O13            7.7222     2.3422     0.2413 O.3     
  14 O14            8.0252     0.1457     0.3730 O.2     
  15 C15            3.5871    -2.1316    -0.0427 C.3     
  16 C16            3.4445    -2.6248    -1.4595 C.ar    
  17 C17            4.5265    -2.5716    -2.3222 C.ar    
  18 C18            4.3972    -3.0240    -3.6234 C.ar    
  19 C19            3.1822    -3.5308    -4.0622 C.ar    
  20 C20            2.0998    -3.5824    -3.1941 C.ar    
  21 C21            2.2353    -3.1348    -1.8945 C.ar    
  22 N22            3.0477    -3.9898    -5.3807 N.pl3   
  23 F23            1.3402    -1.3757    -0.3338 F       
  24 C24            2.2991    -5.0264    -5.8159 C.2     
  25 N25            2.4620    -5.1063    -7.1106 N.2     
  26 N26            3.2624    -4.1910    -7.5237 N.2     
  27 N27            3.6583    -3.4657    -6.5337 N.2     
  28 F28            5.7085    -2.0774    -1.8934 F       
  29 C29            1.4368    -5.9244    -4.9667 C.3     
  30 H30            0.4068     3.0196    -0.6375 H       
  31 H31           -0.2628     0.6536    -0.6062 H       
  32 H32            2.7714     3.6418    -0.3894 H       
  33 H33            6.0172    -1.2865     0.2016 H       
  34 H34            8.6764     2.4581     0.3474 H       
  35 H35            4.3271    -2.7375     0.4802 H       
  36 H36            2.6271    -2.2101     0.4677 H       
  37 H37            5.2406    -2.9824    -4.2967 H       
  38 H38            1.1533    -3.9761    -3.5338 H       
  39 H39            1.3931    -3.1752    -1.2197 H       
  40 H40            0.4320    -5.5071    -4.9010 H       
  41 H41            1.3898    -6.9156    -5.4178 H       
  42 H42            1.8649    -6.0001    -3.9672 H       
@<TRIPOS>BOND
   1    1    2 ar
   2    1    6 ar
   3    1   30 1
   4    2    3 ar
   5    2   31 1
   6    3    4 ar
   7    3   23 1
   8    4    5 ar
   9    4    7 1
  10    5    6 ar
  11    5   10 1
  12    6   32 1
  13    7    8 1
  14    7   15 1
  15    8    9 2
  16    8   33 1
  17    9   10 1
  18    9   12 1
  19   10   11 2
  20   12   13 1
  21   12   14 2
  22   13   34 1
  23   15   16 1
  24   15   35 1
  25   15   36 1
  26   16   17 ar
  27   16   21 ar
  28   17   18 ar
  29   17   28 1
  30   18   19 ar
  31   18   37 1
  32   19   20 ar
  33   19   22 1
  34   20   21 ar
  35   20   38 1
  36   21   39 1
  37   22   24 1
  38   22   27 1
  39   24   25 2
  40   24   29 1
  41   25   26 1
  42   26   27 2
  43   29   40 1
  44   29   41 1
  45   29   42 1

#	End of record

