#	Name: ASD09740457
#	Creating user name:	WinNT
#	Creation time:	15. 06. 2019 21:23

#	Modifying user name:	WinNT
#	Modification time:	15. 06. 2019 21:23

#	Program:	/corina/corina34_cracker 3.40 0067  02.08.2006

@<TRIPOS>MOLECULE
ASD09740457
  77   81    0    0    0
SMALL
NO_CHARGES


@<TRIPOS>ATOM
   1 N1            -0.9559     0.9385     0.2286 N.2     
   2 C2            -0.8650    -0.3462     0.4666 C.2     
   3 C3             0.0556     1.6823     0.5793 C.2     
   4 S4             1.2986     0.6670     1.3053 S.3     
   5 C5             0.2818    -0.7507     1.0550 C.2     
   6 C6             0.1455     3.1457     0.3962 C.ar    
   7 C7            -0.9077     3.8396    -0.1938 C.ar    
   8 C8             1.2861     3.8348     0.8206 C.ar    
   9 C9             1.3751     5.1994     0.6526 C.ar    
  10 C10            0.3336     5.9005     0.0611 C.ar    
  11 C11           -0.8173     5.2205    -0.3641 C.ar    
  12 O12            0.4264     7.2442    -0.1013 O.3     
  13 C13            1.6700     7.8555     0.2477 C.3     
  14 C14            1.8347     9.1597    -0.5351 C.3     
  15 C15            1.6876     8.1554     1.7479 C.3     
  16 C16           -1.8935     5.9412    -0.9748 C.1     
  17 N17           -2.7473     6.5130    -1.4592 N.1     
  18 C18            0.6239    -2.1401     1.4252 C.ar    
  19 C19            1.8545    -2.6835     1.0434 C.ar    
  20 C20            2.1678    -3.9806     1.3925 C.ar    
  21 C21            1.2628    -4.7396     2.1189 C.ar    
  22 C22            0.0447    -4.2074     2.4977 C.ar    
  23 C23           -0.2779    -2.9089     2.1607 C.ar    
  24 C24            2.9961    -2.0725     0.2598 C.3     
  25 C25            4.2113    -2.9813     0.5424 C.3     
  26 C26            3.5432    -4.3341     0.8676 C.3     
  27 N27            3.4308    -5.1499    -0.3440 N.am    
  28 S28            4.2544    -6.5820    -0.4574 S.o2    
  29 O29            3.8873    -7.0977    -1.7296 O.2     
  30 O30            5.6018    -6.2352    -0.1685 O.2     
  31 C31            3.5629    -7.6081     0.8691 C.3     
  32 C32            4.2029    -8.9971     0.8257 C.3     
  33 N33            3.6428    -9.8281     1.8999 N.3     
  34 C34            2.2354   -10.1701     1.6242 C.3     
  35 C35            2.1287   -11.7096     1.6337 C.3     
  36 C36            3.3595   -12.1400     2.4743 C.3     
  37 C37            4.4104   -11.0821     2.0546 C.3     
  38 N38            3.7996   -13.4929     2.1083 N.3     
  39 C39            5.0341   -13.8548     2.8176 C.3     
  40 C40            2.7393   -14.4777     2.3609 C.3     
  41 H41           -1.6549    -1.0366     0.2097 H       
  42 H42           -1.7912     3.3101    -0.5185 H       
  43 H43            2.1000     3.2953     1.2820 H       
  44 H44            2.2586     5.7256     0.9829 H       
  45 H45            2.4888     7.1789     0.0028 H       
  46 H46            1.0159     9.8362    -0.2902 H       
  47 H47            2.7832     9.6260    -0.2689 H       
  48 H48            1.8221     8.9460    -1.6039 H       
  49 H49            1.5703     7.2262     2.3056 H       
  50 H50            2.6362     8.6216     2.0141 H       
  51 H51            0.8688     8.8319     1.9928 H       
  52 H52            1.5115    -5.7548     2.3906 H       
  53 H53           -0.6533    -4.8070     3.0630 H       
  54 H54           -1.2296    -2.4927     2.4565 H       
  55 H55            2.7651    -2.0700    -0.8054 H       
  56 H56            3.1932    -1.0583     0.6073 H       
  57 H57            4.8463    -3.0647    -0.3396 H       
  58 H58            4.7794    -2.6141     1.3971 H       
  59 H59            4.1141    -4.8643     1.6299 H       
  60 H60            2.8739    -4.8511    -1.0799 H       
  61 H61            3.7689    -7.1430     1.8331 H       
  62 H62            2.4853    -7.7001     0.7330 H       
  63 H63            3.9968    -9.4622    -0.1383 H       
  64 H64            5.2804    -8.9051     0.9618 H       
  65 H65            1.5931    -9.7491     2.3977 H       
  66 H66            1.9446    -9.7843     0.6471 H       
  67 H67            1.2035   -12.0288     2.1137 H       
  68 H68            2.1956   -12.1068     0.6209 H       
  69 H69            3.1455   -12.0759     3.5411 H       
  70 H70            4.8742   -11.3623     1.1088 H       
  71 H71            5.1674   -10.9704     2.8309 H       
  72 H72            4.8579   -13.8235     3.8928 H       
  73 H73            5.3377   -14.8610     2.5283 H       
  74 H74            5.8227   -13.1486     2.5579 H       
  75 H75            1.9019   -14.2905     1.6887 H       
  76 H76            3.1270   -15.4816     2.1874 H       
  77 H77            2.4022   -14.3919     3.3939 H       
@<TRIPOS>BOND
   1    1    2 1
   2    1    3 2
   3    2    5 2
   4    2   41 1
   5    3    4 1
   6    3    6 1
   7    4    5 1
   8    5   18 1
   9    6    7 ar
  10    6    8 ar
  11    7   11 ar
  12    7   42 1
  13    8    9 ar
  14    8   43 1
  15    9   10 ar
  16    9   44 1
  17   10   11 ar
  18   10   12 1
  19   11   16 1
  20   12   13 1
  21   13   14 1
  22   13   15 1
  23   13   45 1
  24   14   46 1
  25   14   47 1
  26   14   48 1
  27   15   49 1
  28   15   50 1
  29   15   51 1
  30   16   17 3
  31   18   19 ar
  32   18   23 ar
  33   19   20 ar
  34   19   24 1
  35   20   21 ar
  36   20   26 1
  37   21   22 ar
  38   21   52 1
  39   22   23 ar
  40   22   53 1
  41   23   54 1
  42   24   25 1
  43   24   55 1
  44   24   56 1
  45   25   26 1
  46   25   57 1
  47   25   58 1
  48   26   27 1
  49   26   59 1
  50   27   28 am
  51   27   60 1
  52   28   29 2
  53   28   30 2
  54   28   31 1
  55   31   32 1
  56   31   61 1
  57   31   62 1
  58   32   33 1
  59   32   63 1
  60   32   64 1
  61   33   34 1
  62   33   37 1
  63   34   35 1
  64   34   65 1
  65   34   66 1
  66   35   36 1
  67   35   67 1
  68   35   68 1
  69   36   37 1
  70   36   38 1
  71   36   69 1
  72   37   70 1
  73   37   71 1
  74   38   39 1
  75   38   40 1
  76   39   72 1
  77   39   73 1
  78   39   74 1
  79   40   75 1
  80   40   76 1
  81   40   77 1

#	End of record

