#	Name: ASD01885085
#	Creating user name:	WinNT
#	Creation time:	15. 06. 2019 19:49

#	Modifying user name:	WinNT
#	Modification time:	15. 06. 2019 19:49

#	Program:	/corina/corina34_cracker 3.40 0067  02.08.2006

@<TRIPOS>MOLECULE
ASD01885085
  60   64    0    0    0
SMALL
NO_CHARGES


@<TRIPOS>ATOM
   1 C1            -0.0170     1.4050     0.0098 C.2     
   2 C2             0.0021    -0.0041     0.0020 C.2     
   3 C3            -2.3905     0.0241     0.0250 C.2     
   4 C4            -2.3927     1.3735     0.0454 C.2     
   5 N5            -1.2190     2.0687     0.0314 N.pl3   
   6 C6            -0.9124     3.3942     0.0338 C.2     
   7 N7             0.3916     3.4965     0.0147 N.2     
   8 N8             0.9306     2.3281     0.0057 N.2     
   9 C9            -1.1807    -2.1914     0.0011 C.3     
  10 C10           -1.8956     4.5361     0.0542 C.3     
  11 Cl11           1.5112    -0.8620    -0.0164 Cl      
  12 C12           -2.2072     4.9150     1.5034 C.3     
  13 C13           -3.0996     6.1354     1.7383 C.3     
  14 C14           -3.6461     4.7284     1.9887 C.3     
  15 C15           -1.1769    -0.6844     0.0096 C.2     
  16 N16           -1.2893    -2.6886     1.3791 N.3     
  17 C17           -1.5341    -4.1375     1.3984 C.3     
  18 C18           -1.5614    -4.6283     2.8479 C.3     
  19 N19           -2.6097    -3.9100     3.5859 N.3     
  20 C20           -2.3649    -2.4611     3.5665 C.3     
  21 C21           -2.3377    -1.9704     2.1171 C.3     
  22 C22           -2.7183    -4.4072     4.9639 C.3     
  23 C23           -3.6188    -3.4959     5.7573 C.ar    
  24 C24           -4.9785    -3.7403     5.8076 C.ar    
  25 C25           -5.8045    -2.9044     6.5353 C.ar    
  26 C26           -5.2709    -1.8242     7.2131 C.ar    
  27 C27           -3.9112    -1.5803     7.1636 C.ar    
  28 C28           -3.0845    -2.4188     6.4394 C.ar    
  29 C29           -3.3295    -0.4024     7.9021 C.3     
  30 C30           -7.2869    -3.1703     6.5894 C.3     
  31 F31           -7.5711    -4.0086     7.6727 F       
  32 F32           -7.9724    -1.9605     6.7435 F       
  33 F33           -7.6934    -3.7886     5.4021 F       
  34 F34           -4.3537     0.2885     8.5584 F       
  35 F35           -2.3964    -0.8553     8.8409 F       
  36 F36           -2.6984     0.4529     6.9925 F       
  37 H37           -3.3265    -0.5145     0.0364 H       
  38 H38           -3.3314     1.9075     0.0567 H       
  39 H39           -2.0292    -2.5492    -0.5822 H       
  40 H40           -0.2546    -2.5546    -0.4444 H       
  41 H41           -1.4659     5.3948    -0.4616 H       
  42 H42           -2.8146     4.2333    -0.4478 H       
  43 H43           -1.4063     4.7318     2.2198 H       
  44 H44           -2.8862     6.7548     2.6094 H       
  45 H45           -3.4648     6.6683     0.8604 H       
  46 H46           -4.3708     4.3357     1.2755 H       
  47 H47           -3.7922     4.4222     3.0246 H       
  48 H48           -2.4921    -4.3508     0.9242 H       
  49 H49           -0.7380    -4.6481     0.8565 H       
  50 H50           -1.7716    -5.6976     2.8658 H       
  51 H51           -0.5943    -4.4396     3.3139 H       
  52 H52           -3.1610    -1.9505     4.1084 H       
  53 H53           -1.4069    -2.2478     4.0408 H       
  54 H54           -2.1274    -0.9010     2.0991 H       
  55 H55           -3.3048    -2.1590     1.6510 H       
  56 H56           -3.1366    -5.4137     4.9551 H       
  57 H57           -1.7291    -4.4288     5.4213 H       
  58 H58           -5.3954    -4.5842     5.2781 H       
  59 H59           -5.9164    -1.1706     7.7811 H       
  60 H60           -2.0217    -2.2304     6.4036 H       
@<TRIPOS>BOND
   1    1    2 1
   2    1    8 2
   3    1    5 1
   4    2   15 2
   5    2   11 1
   6    3    4 2
   7    3   15 1
   8    3   37 1
   9    4    5 1
  10    4   38 1
  11    5    6 1
  12    6    7 2
  13    6   10 1
  14    7    8 1
  15    9   15 1
  16    9   16 1
  17    9   39 1
  18    9   40 1
  19   10   12 1
  20   10   41 1
  21   10   42 1
  22   12   13 1
  23   12   14 1
  24   12   43 1
  25   13   14 1
  26   13   44 1
  27   13   45 1
  28   14   46 1
  29   14   47 1
  30   16   17 1
  31   16   21 1
  32   17   18 1
  33   17   48 1
  34   17   49 1
  35   18   19 1
  36   18   50 1
  37   18   51 1
  38   19   20 1
  39   19   22 1
  40   20   21 1
  41   20   52 1
  42   20   53 1
  43   21   54 1
  44   21   55 1
  45   22   23 1
  46   22   56 1
  47   22   57 1
  48   23   24 ar
  49   23   28 ar
  50   24   25 ar
  51   24   58 1
  52   25   26 ar
  53   25   30 1
  54   26   27 ar
  55   26   59 1
  56   27   28 ar
  57   27   29 1
  58   28   60 1
  59   29   34 1
  60   29   35 1
  61   29   36 1
  62   30   31 1
  63   30   32 1
  64   30   33 1

#	End of record

