#	Name: ASD00190052
#	Creating user name:	WinNT
#	Creation time:	15. 06. 2019 18:33

#	Modifying user name:	WinNT
#	Modification time:	15. 06. 2019 18:33

#	Program:	/corina/corina34_cracker 3.40 0067  02.08.2006

@<TRIPOS>MOLECULE
ASD00190052
  53   59    0    0    0
SMALL
NO_CHARGES


@<TRIPOS>ATOM
   1 C1            -0.0154     1.3889     0.0329 C.ar    
   2 C2             0.0026    -0.0011     0.0114 C.ar    
   3 C3             1.1801    -0.6877    -0.0107 C.ar    
   4 C4             2.3964     0.0123    -0.0120 C.ar    
   5 C5             2.3719     1.4268     0.0100 C.ar    
   6 C6             1.1497     2.1010     0.0324 C.ar    
   7 N7             3.5674    -0.6415    -0.0331 N.ar    
   8 C8             4.7273    -0.0214    -0.0346 C.ar    
   9 C9             4.8189     1.3796    -0.0140 C.ar    
  10 C10            3.6478     2.1440     0.0083 C.ar    
  11 N11            5.8586     2.2833    -0.0107 N.pl3   
  12 C12            5.3154     3.5207     0.0131 C.2     
  13 N13            4.0133     3.4342     0.0242 N.2     
  14 N14            5.8931    -0.7726    -0.0567 N.pl3   
  15 C15            5.8289    -2.1658     0.0424 C.ar    
  16 C16            6.7403    -2.9548    -0.6470 C.ar    
  17 C17            6.6743    -4.3319    -0.5470 C.ar    
  18 C18            5.7003    -4.9240     0.2393 C.ar    
  19 C19            4.7913    -4.1392     0.9270 C.ar    
  20 C20            4.8568    -2.7629     0.8353 C.ar    
  21 Cl21           5.6190    -6.6538     0.3622 Cl      
  22 C22            6.0973     4.8090     0.0252 C.3     
  23 C23            6.7304     5.1460     1.4073 C.3     
  24 C24            7.8945     6.0838     0.9796 C.3     
  25 C25            5.2358     6.0688    -0.2834 C.3     
  26 C26            7.2904     7.3442     0.3543 C.3     
  27 C27            6.3238     7.0536    -0.7972 C.3     
  28 C28            7.2797     4.8322    -0.9868 C.3     
  29 C29            7.0417     6.1458    -1.8326 C.3     
  30 C30            8.5318     5.2257    -0.1470 C.3     
  31 Cl31           7.8129    -5.3197    -1.4082 Cl      
  32 H32           -0.9608     1.9110     0.0457 H       
  33 H33           -0.9304    -0.5451     0.0127 H       
  34 H34            1.1769    -1.7675    -0.0269 H       
  35 H35            1.1258     3.1806     0.0496 H       
  36 H36            6.8050     2.0709    -0.0226 H       
  37 H37            6.7528    -0.3315    -0.1410 H       
  38 H38            7.4995    -2.4930    -1.2608 H       
  39 H39            4.0324    -4.6035     1.5392 H       
  40 H40            4.1472    -2.1512     1.3727 H       
  41 H41            6.0199     5.6688     2.0476 H       
  42 H42            7.1088     4.2478     1.8953 H       
  43 H43            8.5802     6.3087     1.7965 H       
  44 H44            4.4980     5.8598    -1.0580 H       
  45 H45            4.7576     6.4483     0.6196 H       
  46 H46            6.7557     7.8954     1.1278 H       
  47 H47            8.1003     7.9705    -0.0198 H       
  48 H48            5.9039     7.9612    -1.2309 H       
  49 H49            7.3813     3.9146    -1.5664 H       
  50 H50            6.3989     5.9437    -2.6894 H       
  51 H51            7.9880     6.5844    -2.1493 H       
  52 H52            9.2397     5.8116    -0.7334 H       
  53 H53            9.0069     4.3334     0.2607 H       
@<TRIPOS>BOND
   1    1    2 ar
   2    1    6 ar
   3    1   32 1
   4    2    3 ar
   5    2   33 1
   6    3    4 ar
   7    3   34 1
   8    4    5 ar
   9    4    7 ar
  10    5    6 ar
  11    5   10 ar
  12    6   35 1
  13    7    8 ar
  14    8    9 ar
  15    8   14 1
  16    9   10 ar
  17    9   11 1
  18   10   13 1
  19   11   12 1
  20   11   36 1
  21   12   13 2
  22   12   22 1
  23   14   15 1
  24   14   37 1
  25   15   16 ar
  26   15   20 ar
  27   16   17 ar
  28   16   38 1
  29   17   18 ar
  30   17   31 1
  31   18   19 ar
  32   18   21 1
  33   19   20 ar
  34   19   39 1
  35   20   40 1
  36   22   23 1
  37   22   25 1
  38   22   28 1
  39   23   24 1
  40   23   41 1
  41   23   42 1
  42   24   26 1
  43   24   30 1
  44   24   43 1
  45   25   27 1
  46   25   44 1
  47   25   45 1
  48   26   27 1
  49   26   46 1
  50   26   47 1
  51   27   29 1
  52   27   48 1
  53   28   29 1
  54   28   30 1
  55   28   49 1
  56   29   50 1
  57   29   51 1
  58   30   52 1
  59   30   53 1

#	End of record

