#	Name: ASD01911030
#	Creating user name:	WinNT
#	Creation time:	15. 06. 2019 19:57

#	Modifying user name:	WinNT
#	Modification time:	15. 06. 2019 19:57

#	Program:	/corina/corina34_cracker 3.40 0067  02.08.2006

@<TRIPOS>MOLECULE
ASD01911030
  53   56    0    0    0
SMALL
NO_CHARGES


@<TRIPOS>ATOM
   1 N1            -4.4862    -3.3047     1.1933 N.3     
   2 C2            -3.1147    -2.8182     1.3942 C.3     
   3 C3            -2.4441    -2.6136     0.0316 C.3     
   4 N4            -3.3007    -1.7397    -0.7843 N.am    
   5 C5            -4.7231    -2.0888    -0.9192 C.3     
   6 C6            -5.3040    -2.3140     0.4808 C.3     
   7 C7            -2.7956    -0.6481    -1.3924 C.2     
   8 C8            -3.6395     0.1424    -2.3104 C.ar    
   9 C9            -3.5681     1.5387    -2.2983 C.ar    
  10 C10           -4.3533     2.2815    -3.1535 C.ar    
  11 C11           -5.2204     1.6497    -4.0327 C.ar    
  12 C12           -5.3012     0.2477    -4.0537 C.ar    
  13 C13           -4.5038    -0.5036    -3.1938 C.ar    
  14 C14           -6.1962    -0.4070    -4.9598 C.1     
  15 O15           -1.6451    -0.3144    -1.1851 O.2     
  16 C16           -6.9300    -0.9438    -5.7026 C.1     
  17 C17           -7.8250    -1.5985    -6.6086 C.ar    
  18 C18           -7.9064    -2.9953    -6.6305 C.ar    
  19 C19           -8.7728    -3.6187    -7.5081 C.ar    
  20 C20           -9.5572    -2.8651    -8.3623 C.ar    
  21 C21           -9.4809    -1.4831    -8.3458 C.ar    
  22 C22           -8.6259    -0.8457    -7.4715 C.ar    
  23 C23           -5.0725    -3.6569     2.4042 C.ar    
  24 O24           -5.9907     2.3860    -4.8720 O.3     
  25 C25           -5.9286    -4.7529     2.4633 C.ar    
  26 C26           -6.5046    -5.0920     3.6754 C.ar    
  27 C27           -6.2039    -4.3212     4.7904 C.ar    
  28 C28           -5.3461    -3.2475     4.6590 C.ar    
  29 N29           -4.8072    -2.9501     3.4918 N.ar    
  30 C30           -5.8575     3.8067    -4.7963 C.3     
  31 Cl31          -6.2696    -5.6812     1.0365 Cl      
  32 F32           -7.1401    -3.7320    -5.7966 F       
  33 H33           -3.1401    -1.8710     1.9330 H       
  34 H34           -2.5499    -3.5504     1.9713 H       
  35 H35           -1.4695    -2.1455     0.1698 H       
  36 H36           -2.3239    -3.5762    -0.4656 H       
  37 H37           -5.2553    -1.2737    -1.4097 H       
  38 H38           -4.8220    -3.0009    -1.5078 H       
  39 H39           -6.3270    -2.6805     0.3955 H       
  40 H40           -5.2989    -1.3738     1.0323 H       
  41 H41           -2.8954     2.0371    -1.6160 H       
  42 H42           -4.2935     3.3597    -3.1387 H       
  43 H43           -4.5608    -1.5821    -3.2051 H       
  44 H44           -8.8373    -4.6966    -7.5272 H       
  45 H45          -10.2327    -3.3576    -9.0462 H       
  46 H46          -10.0964    -0.9020    -9.0165 H       
  47 H47           -8.5685     0.2327    -7.4603 H       
  48 H48           -7.1730    -5.9369     3.7520 H       
  49 H49           -6.6370    -4.5590     5.7507 H       
  50 H50           -5.1100    -2.6453     5.5239 H       
  51 H51           -6.5274     4.2734    -5.5184 H       
  52 H52           -6.1149     4.1428    -3.7918 H       
  53 H53           -4.8285     4.0877    -5.0208 H       
@<TRIPOS>BOND
   1    1    2 1
   2    1   23 1
   3    1    6 1
   4    2    3 1
   5    2   33 1
   6    2   34 1
   7    3    4 1
   8    3   35 1
   9    3   36 1
  10    4    5 1
  11    4    7 am
  12    5    6 1
  13    5   37 1
  14    5   38 1
  15    6   39 1
  16    6   40 1
  17    7    8 1
  18    7   15 2
  19    8    9 ar
  20    8   13 ar
  21    9   10 ar
  22    9   41 1
  23   10   11 ar
  24   10   42 1
  25   11   12 ar
  26   11   24 1
  27   12   13 ar
  28   12   14 1
  29   13   43 1
  30   14   16 3
  31   16   17 1
  32   17   18 ar
  33   17   22 ar
  34   18   19 ar
  35   18   32 1
  36   19   20 ar
  37   19   44 1
  38   20   21 ar
  39   20   45 1
  40   21   22 ar
  41   21   46 1
  42   22   47 1
  43   23   25 ar
  44   23   29 ar
  45   24   30 1
  46   25   26 ar
  47   25   31 1
  48   26   27 ar
  49   26   48 1
  50   27   28 ar
  51   27   49 1
  52   28   29 ar
  53   28   50 1
  54   30   51 1
  55   30   52 1
  56   30   53 1

#	End of record

