#	Name: ASD01028346
#	Creating user name:	WinNT
#	Creation time:	15. 06. 2019 18:57

#	Modifying user name:	WinNT
#	Modification time:	15. 06. 2019 18:57

#	Program:	/corina/corina34_cracker 3.40 0067  02.08.2006

@<TRIPOS>MOLECULE
ASD01028346
  49   53    0    0    0
SMALL
NO_CHARGES


@<TRIPOS>ATOM
   1 C1            -0.0171     1.4107     0.0098 C.ar    
   2 C2             0.0021    -0.0041     0.0020 C.ar    
   3 C3             1.2178     2.1059     0.0017 C.ar    
   4 C4             2.3842     1.3595    -0.0135 C.ar    
   5 C5             2.3156    -0.0274    -0.0203 C.ar    
   6 N6             1.1663    -0.6618    -0.0123 N.ar    
   7 N7             1.2571     3.4927     0.0084 N.pl3   
   8 C8             2.5460     4.1890    -0.0001 C.3     
   9 C9             2.3126     5.6778     0.0096 C.2     
  10 N10            2.1994     6.4600     1.1053 N.pl3   
  11 C11            1.9957     7.7375     0.6400 C.2     
  12 N12            1.9955     7.6681    -0.6812 N.2     
  13 N13            2.1887     6.4477    -1.0427 N.2     
  14 N14            2.2492     6.2149     2.4791 N.2     
  15 C15            2.1024     7.1996     3.3376 C.2     
  16 C16            1.8914     8.5215     2.8913 C.2     
  17 C17            1.8385     8.7912     1.5602 C.2     
  18 C18            2.1587     6.9176     4.7931 C.ar    
  19 C19           -1.2221    -0.6978     0.0101 C.ar    
  20 C20            2.3660     5.6162     5.2456 C.ar    
  21 C21            2.4181     5.3588     6.6008 C.ar    
  22 C22            2.2649     6.3898     7.5096 C.ar    
  23 C23            2.0586     7.6851     7.0663 C.ar    
  24 C24            2.0101     7.9543     5.7125 C.ar    
  25 C25           -2.3882     0.0404     0.0252 C.ar    
  26 C26           -2.3240     1.4376     0.0321 C.ar    
  27 N27           -1.1760     2.0696     0.0299 N.ar    
  28 O28           -3.5931    -0.5873     0.0330 O.3     
  29 C29           -4.7566     0.2422     0.0487 C.3     
  30 Cl30           1.8672     8.9738     8.2136 Cl      
  31 C31            2.3223     6.1023     8.9878 C.3     
  32 F32            2.5374     4.7346     9.1889 F       
  33 F33            3.3699     6.8288     9.5639 F       
  34 F34            1.1128     6.4766     9.5830 F       
  35 H35            3.3441     1.8544    -0.0203 H       
  36 H36            3.2318    -0.5991    -0.0326 H       
  37 H37            0.4311     4.0012     0.0187 H       
  38 H38            3.1182     3.9052     0.8831 H       
  39 H39            3.1015     3.9142    -0.8968 H       
  40 H40            1.7721     9.3201     3.6084 H       
  41 H41            1.6776     9.8011     1.2129 H       
  42 H42           -1.2485    -1.7775     0.0042 H       
  43 H43            2.4855     4.8099     4.5371 H       
  44 H44            2.5785     4.3502     6.9520 H       
  45 H45            1.8491     8.9649     5.3671 H       
  46 H46           -3.2409     2.0082     0.0435 H       
  47 H47           -5.6490    -0.3837     0.0535 H       
  48 H48           -4.7458     0.8665     0.9421 H       
  49 H49           -4.7625     0.8765    -0.8377 H       
@<TRIPOS>BOND
   1    1    2 ar
   2    1    3 ar
   3    1   27 ar
   4    2   19 ar
   5    2    6 ar
   6    3    4 ar
   7    3    7 1
   8    4    5 ar
   9    4   35 1
  10    5    6 ar
  11    5   36 1
  12    7    8 1
  13    7   37 1
  14    8    9 1
  15    8   38 1
  16    8   39 1
  17    9   10 1
  18    9   13 2
  19   10   11 1
  20   10   14 1
  21   11   12 2
  22   11   17 1
  23   12   13 1
  24   14   15 2
  25   15   16 1
  26   15   18 1
  27   16   17 2
  28   16   40 1
  29   17   41 1
  30   18   20 ar
  31   18   24 ar
  32   19   25 ar
  33   19   42 1
  34   20   21 ar
  35   20   43 1
  36   21   22 ar
  37   21   44 1
  38   22   23 ar
  39   22   31 1
  40   23   24 ar
  41   23   30 1
  42   24   45 1
  43   25   26 ar
  44   25   28 1
  45   26   27 ar
  46   26   46 1
  47   28   29 1
  48   29   47 1
  49   29   48 1
  50   29   49 1
  51   31   32 1
  52   31   33 1
  53   31   34 1

#	End of record

