#	Name: ASD01140134
#	Creating user name:	WinNT
#	Creation time:	15. 06. 2019 19:00

#	Modifying user name:	WinNT
#	Modification time:	15. 06. 2019 19:00

#	Program:	/corina/corina34_cracker 3.40 0067  02.08.2006

@<TRIPOS>MOLECULE
ASD01140134
  25   26    0    0    0
SMALL
NO_CHARGES


@<TRIPOS>ATOM
   1 C1            -0.0166     1.3763     0.0096 C.ar    
   2 C2             0.0021    -0.0041     0.0020 C.ar    
   3 C3             1.2187    -0.6826    -0.0132 C.ar    
   4 C4             2.4121     0.0362    -0.0207 C.ar    
   5 C5             2.3829     1.4182    -0.0130 C.ar    
   6 C6             1.1694     2.0869     0.0021 C.ar    
   7 C7             1.2435    -2.1665    -0.0209 C.ar    
   8 C8             0.0485    -2.8847    -0.0129 C.ar    
   9 C9             0.0683    -4.2662    -0.0206 C.ar    
  10 C10            1.2699    -4.9448    -0.0361 C.ar    
  11 C11            2.4742    -4.2368    -0.0443 C.ar    
  12 C12            2.4587    -2.8427    -0.0420 C.ar    
  13 C13            3.7605    -4.9633    -0.0610 C.2     
  14 O14            4.8067    -4.3460    -0.0680 O.2     
  15 O15            3.7732    -6.3103    -0.0683 O.3     
  16 F16            3.5387     2.1176    -0.0198 F       
  17 H17           -0.9599     1.9023     0.0169 H       
  18 H18           -0.9254    -0.5573     0.0082 H       
  19 H19            3.3578    -0.4850    -0.0322 H       
  20 H20            1.1499     3.1667     0.0081 H       
  21 H21           -0.8953    -2.3597    -0.0004 H       
  22 H22           -0.8605    -4.8174    -0.0140 H       
  23 H23            1.2792    -6.0248    -0.0417 H       
  24 H24            3.3867    -2.2901    -0.0486 H       
  25 H25            4.6389    -6.7411    -0.0792 H       
@<TRIPOS>BOND
   1    1    2 ar
   2    1    6 ar
   3    1   17 1
   4    2    3 ar
   5    2   18 1
   6    3    4 ar
   7    3    7 1
   8    4    5 ar
   9    4   19 1
  10    5    6 ar
  11    5   16 1
  12    6   20 1
  13    7    8 ar
  14    7   12 ar
  15    8    9 ar
  16    8   21 1
  17    9   10 ar
  18    9   22 1
  19   10   11 ar
  20   10   23 1
  21   11   12 ar
  22   11   13 1
  23   12   24 1
  24   13   14 2
  25   13   15 1
  26   15   25 1

#	End of record

