#	Name: ASD04910068
#	Creating user name:	WinNT
#	Creation time:	15. 06. 2019 20:55

#	Modifying user name:	WinNT
#	Modification time:	15. 06. 2019 20:55

#	Program:	/corina/corina34_cracker 3.40 0067  02.08.2006

@<TRIPOS>MOLECULE
ASD04910068
  23   24    0    0    0
SMALL
NO_CHARGES


@<TRIPOS>ATOM
   1 C1             0.0021    -0.0041     0.0020 C.1     
   2 C2            -0.0173     1.4278     0.0099 C.ar    
   3 C3             1.1822     2.1447     0.0023 C.ar    
   4 C4             1.1594     3.5218     0.0099 C.ar    
   5 C5            -0.0549     4.1987     0.0257 C.ar    
   6 C6            -1.2505     3.4890     0.0333 C.ar    
   7 C7            -1.2359     2.1118     0.0194 C.ar    
   8 N8             0.0175    -1.1399    -0.0042 N.1     
   9 N9            -0.0739     5.5976     0.0344 N.pl3   
  10 N10            1.0467     6.4384     0.0282 N.2     
  11 C11            0.6288     7.6782     0.0391 C.2     
  12 C12           -0.7705     7.6717     0.0526 C.2     
  13 C13           -1.1820     6.3829     0.0443 C.2     
  14 C14           -1.6621     8.8865     0.0679 C.3     
  15 F15           -0.8748    10.0429     0.0662 F       
  16 F16           -2.4811     8.8783    -1.0663 F       
  17 F17           -2.4583     8.8662     1.2181 F       
  18 H18            2.1258     1.6195    -0.0092 H       
  19 H19            2.0861     4.0765     0.0041 H       
  20 H20           -2.1918     4.0183     0.0455 H       
  21 H21           -2.1650     1.5612     0.0204 H       
  22 H22            1.2568     8.5568     0.0385 H       
  23 H23           -2.2063     6.0404     0.0468 H       
@<TRIPOS>BOND
   1    1    2 1
   2    1    8 3
   3    2    3 ar
   4    2    7 ar
   5    3    4 ar
   6    3   18 1
   7    4    5 ar
   8    4   19 1
   9    5    6 ar
  10    5    9 1
  11    6    7 ar
  12    6   20 1
  13    7   21 1
  14    9   10 1
  15    9   13 1
  16   10   11 2
  17   11   12 1
  18   11   22 1
  19   12   13 2
  20   12   14 1
  21   13   23 1
  22   14   15 1
  23   14   16 1
  24   14   17 1

#	End of record

