#	Name: ASD01810095
#	Creating user name:	WinNT
#	Creation time:	15. 06. 2019 19:23

#	Modifying user name:	WinNT
#	Modification time:	15. 06. 2019 19:23

#	Program:	/corina/corina34_cracker 3.40 0067  02.08.2006

@<TRIPOS>MOLECULE
ASD01810095
  58   62    0    0    0
SMALL
NO_CHARGES


@<TRIPOS>ATOM
   1 C1            -0.7199     1.9335    -0.5159 C.ar    
   2 C2            -0.8252     0.5589    -0.6377 C.ar    
   3 C3             0.3109    -0.2205    -0.7390 C.ar    
   4 C4             1.5615     0.3769    -0.7185 C.ar    
   5 C5             1.6678     1.7641    -0.5957 C.ar    
   6 C6             0.5221     2.5379    -0.4946 C.ar    
   7 N7             2.8601    -0.1207    -0.7987 N.am    
   8 C8             3.7165     0.9158    -0.7278 C.2     
   9 N9             3.0275     2.0659    -0.6050 N.am    
  10 O10            4.9294     0.8265    -0.7690 O.2     
  11 C11            3.6089     3.4065    -0.5001 C.3     
  12 C12            4.5079     3.4790     0.7372 C.3     
  13 C13            5.1598     4.8618     0.8078 C.3     
  14 N14            5.9501     5.0944    -0.4078 N.3     
  15 C15            5.1002     5.0765    -1.6052 C.3     
  16 C16            4.4465     3.7001    -1.7478 C.3     
  17 C17            6.7015     6.3533    -0.3144 C.3     
  18 C18            7.6056     6.4995    -1.5405 C.3     
  19 C19            8.4129     7.7961    -1.4229 C.3     
  20 N20            7.4830     8.9157    -1.2218 N.am    
  21 C21            6.5086     8.8365    -0.1250 C.3     
  22 C22            5.7226     7.5283    -0.2572 C.3     
  23 C23            7.5232     9.9950    -2.0280 C.2     
  24 O24            6.6818    10.8657    -1.9204 O.2     
  25 C25            8.5907    10.1201    -3.0432 C.ar    
  26 C26            8.2895    10.5889    -4.3225 C.ar    
  27 C27            9.2914    10.7032    -5.2660 C.ar    
  28 C28           10.5918    10.3533    -4.9444 C.ar    
  29 C29           10.8958     9.8874    -3.6776 C.ar    
  30 C30            9.9052     9.7750    -2.7242 C.ar    
  31 Cl31           8.9197    11.2862    -6.8584 Cl      
  32 H32           -1.6128     2.5366    -0.4417 H       
  33 H33           -1.7997     0.0935    -0.6532 H       
  34 H34            0.2249    -1.2929    -0.8335 H       
  35 H35            0.6003     3.6109    -0.3998 H       
  36 H36            3.1055    -1.0547    -0.8895 H       
  37 H37            2.8108     4.1439    -0.4142 H       
  38 H38            3.9088     3.3130     1.6326 H       
  39 H39            5.2821     2.7147     0.6698 H       
  40 H40            4.3855     5.6247     0.8891 H       
  41 H41            5.8117     4.9119     1.6799 H       
  42 H42            4.3261     5.8383    -1.5126 H       
  43 H43            5.7088     5.2825    -2.4857 H       
  44 H44            5.2197     2.9393    -1.8543 H       
  45 H45            3.8035     3.6920    -2.6279 H       
  46 H46            7.3123     6.3454     0.5883 H       
  47 H47            8.2868     5.6503    -1.5936 H       
  48 H48            6.9936     6.5326    -2.4419 H       
  49 H49            9.0919     7.7279    -0.5729 H       
  50 H50            8.9840     7.9552    -2.3375 H       
  51 H51            7.0323     8.8532     0.8309 H       
  52 H52            5.8233     9.6821    -0.1833 H       
  53 H53            5.1284     7.5516    -1.1707 H       
  54 H54            5.0636     7.4112     0.6032 H       
  55 H55            7.2752    10.8614    -4.5743 H       
  56 H56           11.3720    10.4440    -5.6856 H       
  57 H57           11.9120     9.6154    -3.4332 H       
  58 H58           10.1443     9.4111    -1.7359 H       
@<TRIPOS>BOND
   1    1    2 ar
   2    1    6 ar
   3    1   32 1
   4    2    3 ar
   5    2   33 1
   6    3    4 ar
   7    3   34 1
   8    4    5 ar
   9    4    7 1
  10    5    6 ar
  11    5    9 1
  12    6   35 1
  13    7    8 am
  14    7   36 1
  15    8    9 am
  16    8   10 2
  17    9   11 1
  18   11   12 1
  19   11   16 1
  20   11   37 1
  21   12   13 1
  22   12   38 1
  23   12   39 1
  24   13   14 1
  25   13   40 1
  26   13   41 1
  27   14   15 1
  28   14   17 1
  29   15   16 1
  30   15   42 1
  31   15   43 1
  32   16   44 1
  33   16   45 1
  34   17   18 1
  35   17   22 1
  36   17   46 1
  37   18   19 1
  38   18   47 1
  39   18   48 1
  40   19   20 1
  41   19   49 1
  42   19   50 1
  43   20   21 1
  44   20   23 am
  45   21   22 1
  46   21   51 1
  47   21   52 1
  48   22   53 1
  49   22   54 1
  50   23   24 2
  51   23   25 1
  52   25   26 ar
  53   25   30 ar
  54   26   27 ar
  55   26   55 1
  56   27   28 ar
  57   27   31 1
  58   28   29 ar
  59   28   56 1
  60   29   30 ar
  61   29   57 1
  62   30   58 1

#	End of record

