#	Name: ASD01901163
#	Creating user name:	WinNT
#	Creation time:	15. 06. 2019 19:53

#	Modifying user name:	WinNT
#	Modification time:	15. 06. 2019 19:53

#	Program:	/corina/corina34_cracker 3.40 0067  02.08.2006

@<TRIPOS>MOLECULE
ASD01901163
  51   54    0    0    0
SMALL
NO_CHARGES


@<TRIPOS>ATOM
   1 C1            -0.0282     1.3758    -0.0680 C.ar    
   2 C2            -0.0108    -0.0031    -0.0849 C.ar    
   3 C3             1.1942    -0.6831    -0.1053 C.ar    
   4 C4             2.3898     0.0136    -0.1085 C.ar    
   5 C5             2.3882     1.3927    -0.0914 C.ar    
   6 C6             1.1752     2.0863    -0.0717 C.ar    
   7 C7             1.1654     3.5182    -0.0548 C.1     
   8 C8             1.1573     4.6921    -0.0409 C.1     
   9 C9             1.1475     6.1240    -0.0240 C.ar    
  10 C10            2.3522     6.8329    -0.0276 C.ar    
  11 C11            2.3389     8.2127    -0.0113 C.ar    
  12 C12            1.1284     8.8982     0.0089 C.ar    
  13 C13           -0.0725     8.1959     0.0126 C.ar    
  14 C14           -0.0669     6.8161    -0.0096 C.ar    
  15 N15            1.1188    10.3005     0.0259 N.am    
  16 C16            1.1028    10.9763    -1.1350 C.2     
  17 N17            0.8545    12.2953    -1.1777 N.am    
  18 C18            0.4690    13.0279     0.0299 C.3     
  19 C19            1.2156    12.4540     1.2363 C.3     
  20 C20            1.1201    10.9490     1.2050 C.2     
  21 O21            1.3187    10.3796    -2.1716 O.2     
  22 O22            1.0483    10.3236     2.2412 O.2     
  23 C23            0.9715    13.0114    -2.4504 C.3     
  24 C24            0.8300    14.5053    -0.1374 C.3     
  25 C25           -1.0161    12.8958     0.2491 C.ar    
  26 C26           -1.8068    12.2355    -0.6792 C.ar    
  27 C27           -1.6063    13.4262     1.3804 C.ar    
  28 N28           -2.9051    13.3137     1.5795 N.ar    
  29 C29           -3.6881    12.6971     0.7162 C.ar    
  30 C30           -3.1680    12.1378    -0.4359 C.ar    
  31 F31            3.5027     8.8987    -0.0143 F       
  32 F32           -1.2457     8.8656     0.0321 F       
  33 H33           -0.9694     1.9053    -0.0566 H       
  34 H34           -0.9400    -0.5536    -0.0817 H       
  35 H35            1.2016    -1.7630    -0.1184 H       
  36 H36            3.3264    -0.5238    -0.1242 H       
  37 H37            3.3221     1.9352    -0.0933 H       
  38 H38            3.2922     6.3015    -0.0429 H       
  39 H39           -0.9996     6.2716    -0.0116 H       
  40 H40            2.2618    12.7570     1.1950 H       
  41 H41            0.7635    12.8269     2.1554 H       
  42 H42            1.2654    12.3135    -3.2343 H       
  43 H43            0.0111    13.4599    -2.7045 H       
  44 H44            1.7250    13.7937    -2.3592 H       
  45 H45            1.9042    14.6012    -0.2955 H       
  46 H46            0.2984    14.9142    -0.9966 H       
  47 H47            0.5446    15.0530     0.7607 H       
  48 H48           -1.3725    11.8077    -1.5708 H       
  49 H49           -0.9968    13.9384     2.1101 H       
  50 H50           -4.7475    12.6249     0.9134 H       
  51 H51           -3.8139    11.6304    -1.1372 H       
@<TRIPOS>BOND
   1    1    2 ar
   2    1    6 ar
   3    1   33 1
   4    2    3 ar
   5    2   34 1
   6    3    4 ar
   7    3   35 1
   8    4    5 ar
   9    4   36 1
  10    5    6 ar
  11    5   37 1
  12    6    7 1
  13    7    8 3
  14    8    9 1
  15    9   10 ar
  16    9   14 ar
  17   10   11 ar
  18   10   38 1
  19   11   12 ar
  20   11   31 1
  21   12   13 ar
  22   12   15 1
  23   13   14 ar
  24   13   32 1
  25   14   39 1
  26   15   16 am
  27   15   20 am
  28   16   17 am
  29   16   21 2
  30   17   23 1
  31   17   18 1
  32   18   19 1
  33   18   24 1
  34   18   25 1
  35   19   20 1
  36   19   40 1
  37   19   41 1
  38   20   22 2
  39   23   42 1
  40   23   43 1
  41   23   44 1
  42   24   45 1
  43   24   46 1
  44   24   47 1
  45   25   27 ar
  46   25   26 ar
  47   26   30 ar
  48   26   48 1
  49   27   28 ar
  50   27   49 1
  51   28   29 ar
  52   29   30 ar
  53   29   50 1
  54   30   51 1

#	End of record

