#	Name: ASD01140369
#	Creating user name:	WinNT
#	Creation time:	15. 06. 2019 19:00

#	Modifying user name:	WinNT
#	Modification time:	15. 06. 2019 19:00

#	Program:	/corina/corina34_cracker 3.40 0067  02.08.2006

@<TRIPOS>MOLECULE
ASD01140369
  41   44    0    0    0
SMALL
NO_CHARGES


@<TRIPOS>ATOM
   1 S1            -0.0211     1.7052     0.0114 S.3     
   2 C2             0.0021    -0.0041     0.0020 C.2     
   3 N3             1.2238    -0.4376    -0.0120 N.2     
   4 C4             2.1809     0.4665    -0.0163 C.2     
   5 C5             1.7403     1.7408    -0.0052 C.2     
   6 C6             2.5855     2.9533    -0.0072 C.ar    
   7 C7             1.9962     4.2187     0.0053 C.ar    
   8 C8             2.7910     5.3463     0.0038 C.ar    
   9 C9             4.1692     5.2250    -0.0104 C.ar    
  10 C10            4.7597     3.9738    -0.0233 C.ar    
  11 C11            3.9766     2.8380    -0.0157 C.ar    
  12 O12           -1.0992    -0.7931     0.0087 O.3     
  13 C13           -1.8741    -4.4223     0.5835 C.3     
  14 C14           -2.0381    -2.9009     0.7288 C.3     
  15 C15           -0.8851    -2.2060    -0.0010 C.3     
  16 C16           -0.8166    -2.7008    -1.4486 C.3     
  17 C17           -0.7352    -4.2358    -1.4464 C.3     
  18 C18            0.3461    -4.6506    -0.4222 C.3     
  19 C19           -0.4064    -4.7739     0.9191 C.3     
  20 N20           -2.0053    -4.7436    -0.8626 N.3     
  21 C21           -2.1381    -6.1918    -1.0702 C.3     
  22 H22            3.2298     0.2093    -0.0277 H       
  23 H23            0.9206     4.3147     0.0157 H       
  24 H24            2.3364     6.3259     0.0134 H       
  25 H25            4.7868     6.1110    -0.0119 H       
  26 H26            5.8361     3.8861    -0.0348 H       
  27 H27            4.4388     1.8619    -0.0213 H       
  28 H28           -2.5818    -4.9727     1.2034 H       
  29 H29           -2.9869    -2.5925     0.2897 H       
  30 H30           -2.0175    -2.6308     1.7846 H       
  31 H31            0.0535    -2.4339     0.5041 H       
  32 H32           -1.7104    -2.3834    -1.9856 H       
  33 H33            0.0685    -2.2891    -1.9336 H       
  34 H34           -0.5377    -4.6379    -2.4400 H       
  35 H35            0.7846    -5.6089    -0.7006 H       
  36 H36            1.1185    -3.8844    -0.3548 H       
  37 H37           -0.0040    -4.0683     1.6460 H       
  38 H38           -0.3380    -5.7928     1.3001 H       
  39 H39           -3.0250    -6.5536    -0.5500 H       
  40 H40           -2.2324    -6.3989    -2.1362 H       
  41 H41           -1.2555    -6.6974    -0.6786 H       
@<TRIPOS>BOND
   1    1    2 1
   2    1    5 1
   3    2    3 2
   4    2   12 1
   5    3    4 1
   6    4    5 2
   7    4   22 1
   8    5    6 1
   9    6    7 ar
  10    6   11 ar
  11    7    8 ar
  12    7   23 1
  13    8    9 ar
  14    8   24 1
  15    9   10 ar
  16    9   25 1
  17   10   11 ar
  18   10   26 1
  19   11   27 1
  20   12   15 1
  21   13   14 1
  22   13   19 1
  23   13   20 1
  24   13   28 1
  25   14   15 1
  26   14   29 1
  27   14   30 1
  28   15   16 1
  29   15   31 1
  30   16   17 1
  31   16   32 1
  32   16   33 1
  33   17   18 1
  34   17   20 1
  35   17   34 1
  36   18   19 1
  37   18   35 1
  38   18   36 1
  39   19   37 1
  40   19   38 1
  41   20   21 1
  42   21   39 1
  43   21   40 1
  44   21   41 1

#	End of record

