#	Name: ASD01470053
#	Creating user name:	WinNT
#	Creation time:	15. 06. 2019 19:21

#	Modifying user name:	WinNT
#	Modification time:	15. 06. 2019 19:21

#	Program:	/corina/corina34_cracker 3.40 0067  02.08.2006

@<TRIPOS>MOLECULE
ASD01470053
  30   32    0    0    0
SMALL
NO_CHARGES


@<TRIPOS>ATOM
   1 C1            -0.1214     1.6012     0.0514 C.3     
   2 C2             0.0203     0.0780     0.0243 C.3     
   3 C3             0.7570    -0.3799     1.2566 C.ar    
   4 C4             2.1219    -0.5815     1.2081 C.ar    
   5 C5             2.8140    -1.0023     2.3317 C.ar    
   6 C6             2.1410    -1.2252     3.5157 C.ar    
   7 C7             0.7645    -1.0249     3.5753 C.ar    
   8 C8             0.0616    -0.5931     2.4414 C.ar    
   9 N9            -1.2867    -0.4696     2.7568 N.am    
  10 C10           -1.5216    -0.7955     4.0393 C.2     
  11 O11           -2.6042    -0.7819     4.5948 O.2     
  12 C12           -0.2333    -1.1681     4.6562 C.2     
  13 C13           -0.0100    -1.5709     5.9589 C.2     
  14 S14           -1.1486    -1.5301     7.3187 S.3     
  15 C15           -0.0066    -2.2102     8.4902 C.2     
  16 N16           -0.2378    -2.4504     9.7491 N.2     
  17 N17            1.1662    -2.4360     7.8181 N.am    
  18 C18            1.2292    -2.1388     6.5308 C.2     
  19 O19            2.2340    -2.3115     5.8694 O.2     
  20 H20            0.8681     2.0578     0.0738 H       
  21 H21           -0.6542     1.9325    -0.8399 H       
  22 H22           -0.6789     1.8985     0.9395 H       
  23 H23           -0.9692    -0.3785     0.0018 H       
  24 H24            0.5779    -0.2193    -0.8639 H       
  25 H25            2.6552    -0.4097     0.2848 H       
  26 H26            3.8818    -1.1565     2.2810 H       
  27 H27            2.6797    -1.5540     4.3921 H       
  28 H28           -1.9707    -0.1841     2.1311 H       
  29 H29           -1.1084    -2.2529    10.1287 H       
  30 H30            1.9345    -2.8102     8.2770 H       
@<TRIPOS>BOND
   1    1    2 1
   2    1   20 1
   3    1   21 1
   4    1   22 1
   5    2    3 1
   6    2   23 1
   7    2   24 1
   8    3    4 ar
   9    3    8 ar
  10    4    5 ar
  11    4   25 1
  12    5    6 ar
  13    5   26 1
  14    6    7 ar
  15    6   27 1
  16    7    8 ar
  17    7   12 1
  18    8    9 1
  19    9   10 am
  20    9   28 1
  21   10   11 2
  22   10   12 1
  23   12   13 2
  24   13   14 1
  25   13   18 1
  26   14   15 1
  27   15   16 2
  28   15   17 1
  29   16   29 1
  30   17   18 am
  31   17   30 1
  32   18   19 2

#	End of record

