#	Name: ASD01150983
#	Creating user name:	WinNT
#	Creation time:	15. 06. 2019 19:05

#	Modifying user name:	WinNT
#	Modification time:	15. 06. 2019 19:05

#	Program:	/corina/corina34_cracker 3.40 0067  02.08.2006

@<TRIPOS>MOLECULE
ASD01150983
  46   48    0    0    0
SMALL
NO_CHARGES


@<TRIPOS>ATOM
   1 C1            -0.0155     1.2933     0.0092 C.2     
   2 N2             0.0021    -0.0041     0.0020 N.2     
   3 C3            -1.2836    -0.4574     0.0118 C.2     
   4 C4            -2.1000     0.6603     0.0256 C.2     
   5 O5            -1.2849     1.7299     0.0294 O.3     
   6 C6             1.2052     2.1769     0.0022 C.3     
   7 N7            -3.4820     0.6743     0.0385 N.am    
   8 C8            -1.7174    -1.8572     0.0080 C.2     
   9 O9            -2.9035    -2.1264     0.0175 O.2     
  10 O10           -0.8012    -2.8471    -0.0060 O.3     
  11 C11           -1.3030    -4.2096    -0.0089 C.3     
  12 C12           -0.1257    -5.1866    -0.0253 C.3     
  13 C13           -4.1439     1.8482     0.0511 C.2     
  14 C14           -5.6508     1.8635     0.0651 C.3     
  15 O15           -3.5270     2.8922     0.0513 O.2     
  16 C16            2.0534     1.8845     1.2416 C.3     
  17 C17            2.0290     1.8988    -1.2567 C.3     
  18 C18           -6.1625     1.2508     1.3759 C.3     
  19 O19           -7.5935     1.2929     1.3616 O.3     
  20 C20           -8.1672     2.4647     0.9737 C.ar    
  21 C21           -7.4324     3.4228     0.2856 C.ar    
  22 O22           -6.1208     3.2137    -0.0119 O.3     
  23 C23           -9.5013     2.7007     1.2705 C.ar    
  24 C24          -10.0984     3.8846     0.8811 C.ar    
  25 C25           -9.3681     4.8366     0.1942 C.ar    
  26 C26           -8.0380     4.6084    -0.1033 C.ar    
  27 H27            0.8970     3.2224     0.0112 H       
  28 H28           -3.9755    -0.1608     0.0383 H       
  29 H29           -1.9025    -4.3780     0.8857 H       
  30 H30           -1.9189    -4.3681    -0.8942 H       
  31 H31           -0.5023    -6.2095    -0.0275 H       
  32 H32            0.4738    -5.0183    -0.9199 H       
  33 H33            0.4903    -5.0282     0.8599 H       
  34 H34           -6.0320     1.2920    -0.7812 H       
  35 H35            2.3616     0.8391     1.2326 H       
  36 H36            2.9364     2.5237     1.2366 H       
  37 H37            1.4666     2.0826     2.1385 H       
  38 H38            2.3371     0.8533    -1.2657 H       
  39 H39            1.4247     2.1071    -2.1397 H       
  40 H40            2.9119     2.5379    -1.2617 H       
  41 H41           -5.8259     0.2171     1.4546 H       
  42 H42           -5.7862     1.8259     2.2220 H       
  43 H43          -10.0743     1.9583     1.8063 H       
  44 H44          -11.1373     4.0663     1.1135 H       
  45 H45           -9.8379     5.7602    -0.1102 H       
  46 H46           -7.4698     5.3537    -0.6401 H       
@<TRIPOS>BOND
   1    1    2 2
   2    1    6 1
   3    1    5 1
   4    2    3 1
   5    3    4 2
   6    3    8 1
   7    4    5 1
   8    4    7 1
   9    6   16 1
  10    6   17 1
  11    6   27 1
  12    7   13 am
  13    7   28 1
  14    8    9 2
  15    8   10 1
  16   10   11 1
  17   11   12 1
  18   11   29 1
  19   11   30 1
  20   12   31 1
  21   12   32 1
  22   12   33 1
  23   13   14 1
  24   13   15 2
  25   14   18 1
  26   14   22 1
  27   14   34 1
  28   16   35 1
  29   16   36 1
  30   16   37 1
  31   17   38 1
  32   17   39 1
  33   17   40 1
  34   18   19 1
  35   18   41 1
  36   18   42 1
  37   19   20 1
  38   20   21 ar
  39   20   23 ar
  40   21   22 1
  41   21   26 ar
  42   23   24 ar
  43   23   43 1
  44   24   25 ar
  45   24   44 1
  46   25   26 ar
  47   25   45 1
  48   26   46 1

#	End of record

