#	Name: ASD01940295
#	Creating user name:	WinNT
#	Creation time:	15. 06. 2019 20:12

#	Modifying user name:	WinNT
#	Modification time:	15. 06. 2019 20:12

#	Program:	/corina/corina34_cracker 3.40 0067  02.08.2006

@<TRIPOS>MOLECULE
ASD01940295
  47   49    0    0    0
SMALL
NO_CHARGES


@<TRIPOS>ATOM
   1 C1             1.0303     2.3321    -2.8212 C.3     
   2 C2             0.2216     3.1380    -3.8397 C.3     
   3 C3             1.5178     3.7128    -3.2648 C.3     
   4 S4             0.3536     2.1814    -1.1449 S.o2    
   5 O5            -0.9186     1.5490    -1.1757 O.2     
   6 O6             1.3608     1.7572    -0.2368 O.2     
   7 N7             0.0242     3.7395    -0.6907 N.am    
   8 C8             1.0745     4.6177    -0.3838 C.ar    
   9 C9             0.7996     5.8763     0.1473 C.ar    
  10 C10            1.8428     6.7419     0.4493 C.ar    
  11 C11            3.1531     6.3527     0.2221 C.ar    
  12 C12            3.4253     5.1021    -0.3056 C.ar    
  13 C13            2.3899     4.2325    -0.6034 C.ar    
  14 N14           -0.5267     6.2680     0.3759 N.pl3   
  15 C15           -0.8417     7.6235     0.5136 C.ar    
  16 C16           -0.6940     8.4870    -0.5675 C.ar    
  17 C17           -1.0069     9.8261    -0.4273 C.ar    
  18 C18           -1.4658    10.3070     0.7865 C.ar    
  19 C19           -1.6133     9.4505     1.8621 C.ar    
  20 C20           -1.3078     8.1096     1.7274 C.ar    
  21 I21           -1.9376    12.3375     0.9951 I       
  22 F22           -0.2451     8.0176    -1.7521 F       
  23 F23            2.6596     3.0107    -1.1131 F       
  24 F24            4.1672     7.1957     0.5159 F       
  25 F25            1.5801     7.9630     0.9640 F       
  26 C26            1.7988     1.1129    -3.3349 C.3     
  27 C27            2.5272     0.4409    -2.1693 C.3     
  28 C28            3.4359    -0.6668    -2.7063 C.3     
  29 O29            4.2026    -1.2162    -1.6328 O.3     
  30 O30            1.5697    -0.1225    -1.2705 O.3     
  31 H31            0.2371     2.7997    -4.8758 H       
  32 H32           -0.7170     3.5777    -3.5026 H       
  33 H33            1.4318     4.5307    -2.5494 H       
  34 H34            2.3860     3.7526    -3.9226 H       
  35 H35           -0.8949     4.0450    -0.6368 H       
  36 H36            4.4479     4.8024    -0.4813 H       
  37 H37           -1.2261     5.5988     0.4385 H       
  38 H38           -0.8928    10.4976    -1.2654 H       
  39 H39           -1.9718     9.8294     2.8078 H       
  40 H40           -1.4278     7.4410     2.5671 H       
  41 H41            1.1008     0.4059    -3.7833 H       
  42 H42            2.5254     1.4301    -4.0829 H       
  43 H43            3.1291     1.1809    -1.6418 H       
  44 H44            2.8264    -1.4507    -3.1559 H       
  45 H45            4.1079    -0.2528    -3.4580 H       
  46 H46            4.8025    -1.9256    -1.9008 H       
  47 H47            0.9980    -0.7905    -1.6729 H       
@<TRIPOS>BOND
   1    1    2 1
   2    1    3 1
   3    1    4 1
   4    1   26 1
   5    2    3 1
   6    2   31 1
   7    2   32 1
   8    3   33 1
   9    3   34 1
  10    4    5 2
  11    4    6 2
  12    4    7 am
  13    7    8 1
  14    7   35 1
  15    8    9 ar
  16    8   13 ar
  17    9   10 ar
  18    9   14 1
  19   10   11 ar
  20   10   25 1
  21   11   12 ar
  22   11   24 1
  23   12   13 ar
  24   12   36 1
  25   13   23 1
  26   14   15 1
  27   14   37 1
  28   15   16 ar
  29   15   20 ar
  30   16   17 ar
  31   16   22 1
  32   17   18 ar
  33   17   38 1
  34   18   19 ar
  35   18   21 1
  36   19   20 ar
  37   19   39 1
  38   20   40 1
  39   26   27 1
  40   26   41 1
  41   26   42 1
  42   27   28 1
  43   27   30 1
  44   27   43 1
  45   28   29 1
  46   28   44 1
  47   28   45 1
  48   29   46 1
  49   30   47 1

#	End of record

