#	Name: ASD08178439
#	Creating user name:	WinNT
#	Creation time:	15. 06. 2019 21:18

#	Modifying user name:	WinNT
#	Modification time:	15. 06. 2019 21:18

#	Program:	/corina/corina34_cracker 3.40 0067  02.08.2006

@<TRIPOS>MOLECULE
ASD08178439
  57   60    0    0    0
SMALL
NO_CHARGES


@<TRIPOS>ATOM
   1 C1            -0.0218     1.7597     0.0117 C.2     
   2 C2             1.7146     0.0386    -0.0141 C.2     
   3 N3             2.1002     1.2789    -0.0111 N.2     
   4 N4             1.2065     2.1705     0.0022 N.2     
   5 C5            -5.0628     5.3148    -4.7496 C.2     
   6 N6            -5.8192     4.5655    -5.4872 N.2     
   7 N7            -5.9431     4.9051    -6.6968 N.2     
   8 C8            -5.3077     5.9662    -7.0934 C.2     
   9 S9            -4.4492     6.6212    -5.7636 S.3     
  10 N10           -5.3262     6.4877    -8.3826 N.am    
  11 C11           -6.0495     5.8811    -9.3446 C.2     
  12 O12           -6.6841     4.8804    -9.0860 O.2     
  13 C13           -6.0695     6.4462   -10.7415 C.3     
  14 C14           -6.9457     5.5886   -11.6178 C.ar    
  15 C15           -8.2993     5.8627   -11.7399 C.ar    
  16 C16           -9.0667     5.0468   -12.5572 C.ar    
  17 C17           -8.4611     3.9950   -13.2182 C.ar    
  18 N18           -7.1704     3.7639   -13.0784 N.ar    
  19 C19           -6.4089     4.5223   -12.3143 C.ar    
  20 N20            2.5530    -1.0710    -0.0285 N.am    
  21 C21            3.8904    -0.9049    -0.0413 C.2     
  22 O22            4.3628     0.2122    -0.0403 O.2     
  23 C23            4.7989    -2.1072    -0.0569 C.3     
  24 C24            6.2352    -1.6513    -0.0692 C.ar    
  25 C25            6.9144    -1.4459     1.1168 C.ar    
  26 N26            8.1711    -1.0466     1.1139 N.ar    
  27 C27            8.8271    -0.8289    -0.0092 C.ar    
  28 C28            8.2131    -1.0133    -1.2335 C.ar    
  29 C29            6.8938    -1.4382    -1.2706 C.ar    
  30 S30            0.0021    -0.0041     0.0020 S.3     
  31 C31           -4.7657     5.1108    -3.2863 C.3     
  32 C32           -3.5236     4.2301    -3.1361 C.3     
  33 S33           -3.1660     3.9845    -1.3747 S.3     
  34 C34           -1.6868     2.9347    -1.4012 C.3     
  35 C35           -1.2506     2.6319     0.0337 C.3     
  36 H36           -4.8186     7.2880    -8.5893 H       
  37 H37           -6.4637     7.4621   -10.7168 H       
  38 H38           -5.0561     6.4593   -11.1427 H       
  39 H39           -8.7454     6.6917   -11.2107 H       
  40 H40          -10.1243     5.2307   -12.6754 H       
  41 H41           -9.0520     3.3546   -13.8564 H       
  42 H42           -5.3555     4.3021   -12.2243 H       
  43 H43            2.1752    -1.9644    -0.0293 H       
  44 H44            4.6171    -2.7115     0.8319 H       
  45 H45            4.5989    -2.7022    -0.9480 H       
  46 H46            6.4098    -1.6139     2.0568 H       
  47 H47            9.8558    -0.5023     0.0283 H       
  48 H48            8.7553    -0.8326    -2.1499 H       
  49 H49            6.3885    -1.5911    -2.2128 H       
  50 H50           -4.5855     6.0765    -2.8140 H       
  51 H51           -5.6157     4.6250    -2.8072 H       
  52 H52           -3.7038     3.2643    -3.6083 H       
  53 H53           -2.6736     4.7159    -3.6152 H       
  54 H54           -1.9129     2.0014    -1.9168 H       
  55 H55           -0.8828     3.4529    -1.9237 H       
  56 H56           -2.0547     2.1136     0.5562 H       
  57 H57           -1.0245     3.5652     0.5494 H       
@<TRIPOS>BOND
   1    1   30 1
   2    1    4 2
   3    1   35 1
   4    2    3 2
   5    2   20 1
   6    2   30 1
   7    3    4 1
   8    5    6 2
   9    5   31 1
  10    5    9 1
  11    6    7 1
  12    7    8 2
  13    8    9 1
  14    8   10 1
  15   10   11 am
  16   10   36 1
  17   11   12 2
  18   11   13 1
  19   13   14 1
  20   13   37 1
  21   13   38 1
  22   14   15 ar
  23   14   19 ar
  24   15   16 ar
  25   15   39 1
  26   16   17 ar
  27   16   40 1
  28   17   18 ar
  29   17   41 1
  30   18   19 ar
  31   19   42 1
  32   20   21 am
  33   20   43 1
  34   21   22 2
  35   21   23 1
  36   23   24 1
  37   23   44 1
  38   23   45 1
  39   24   25 ar
  40   24   29 ar
  41   25   26 ar
  42   25   46 1
  43   26   27 ar
  44   27   28 ar
  45   27   47 1
  46   28   29 ar
  47   28   48 1
  48   29   49 1
  49   31   32 1
  50   31   50 1
  51   31   51 1
  52   32   33 1
  53   32   52 1
  54   32   53 1
  55   33   34 1
  56   34   35 1
  57   34   54 1
  58   34   55 1
  59   35   56 1
  60   35   57 1

#	End of record

