#	Name: ASD06350041
#	Creating user name:	WinNT
#	Creation time:	15. 06. 2019 21:06

#	Modifying user name:	WinNT
#	Modification time:	15. 06. 2019 21:06

#	Program:	/corina/corina34_cracker 3.40 0067  02.08.2006

@<TRIPOS>MOLECULE
ASD06350041
  47   52    0    0    0
SMALL
NO_CHARGES


@<TRIPOS>ATOM
   1 C1            -0.0169     1.3924     0.0097 C.ar    
   2 C2             1.2078     2.0526     0.0015 C.ar    
   3 C3             2.4288     1.3843    -0.0174 C.ar    
   4 C4             2.4214     0.0167    -0.0241 C.ar    
   5 C5             1.2034    -0.6625    -0.0142 C.ar    
   6 C6             0.0021    -0.0041     0.0020 C.ar    
   7 N7             0.9890     3.4204     0.0170 N.pl3   
   8 C8             2.1474     4.3234     0.0200 C.3     
   9 C9             3.3324     3.5918     0.6623 C.3     
  10 C10            3.6505     2.2637    -0.0321 C.3     
  11 C11           -0.3483     3.6393     0.0284 C.2     
  12 C12           -1.0154     2.4618     0.0194 C.2     
  13 C13           -2.5119     2.2845     0.0276 C.3     
  14 C14           -3.1360     2.9702    -1.1682 C.2     
  15 N15           -3.9718     3.9251    -0.7417 N.am    
  16 C16           -4.0509     4.0388     0.5899 C.2     
  17 C17           -3.1386     3.0164     1.2318 C.3     
  18 C18           -3.9317     2.0571     2.0814 C.2     
  19 C19           -3.6964     1.7438     3.4930 C.ar    
  20 C20           -4.6804     0.8042     3.8518 C.ar    
  21 N21           -5.4487     0.5734     2.7328 N.pl3   
  22 C22           -4.9914     1.3321     1.6899 C.2     
  23 C23           -3.7805     0.7482     6.0707 C.ar    
  24 C24           -4.7105     0.3121     5.1523 C.ar    
  25 C25           -2.7639     2.1718     4.4395 C.ar    
  26 C26           -2.8118     1.6751     5.7118 C.ar    
  27 O27           -4.7432     4.8350     1.1868 O.2     
  28 O28           -2.9141     2.6983    -2.3285 O.2     
  29 H29           -2.3680     3.5088     1.8249 H       
  30 H30           -2.7716     1.2259     0.0416 H       
  31 H31            3.3511    -0.5327    -0.0374 H       
  32 H32            1.2073    -1.7425    -0.0197 H       
  33 H33           -0.9234    -0.5607     0.0085 H       
  34 H34            2.3990     4.5998    -1.0039 H       
  35 H35            1.9130     5.2180     0.5969 H       
  36 H36            4.2116     4.2343     0.6133 H       
  37 H37            3.0999     3.3953     1.7089 H       
  38 H38            4.4640     1.7643     0.4941 H       
  39 H39            3.9481     2.4550    -1.0631 H       
  40 H40           -0.8147     4.6134     0.0388 H       
  41 H41           -4.4784     4.4883    -1.3476 H       
  42 H42           -6.2040    -0.0338     2.6910 H       
  43 H43           -5.4185     1.3443     0.6980 H       
  44 H44           -3.8055     0.3648     7.0801 H       
  45 H45           -5.4605    -0.4092     5.4414 H       
  46 H46           -2.0072     2.8926     4.1673 H       
  47 H47           -2.0904     2.0068     6.4438 H       
@<TRIPOS>BOND
   1    1    6 ar
   2    1    2 ar
   3    1   12 1
   4    2    3 ar
   5    2    7 1
   6    3    4 ar
   7    3   10 1
   8    4    5 ar
   9    4   31 1
  10    5    6 ar
  11    5   32 1
  12    6   33 1
  13    7    8 1
  14    7   11 1
  15    8    9 1
  16    8   34 1
  17    8   35 1
  18    9   10 1
  19    9   36 1
  20    9   37 1
  21   10   38 1
  22   10   39 1
  23   11   12 2
  24   11   40 1
  25   12   13 1
  26   13   14 1
  27   13   17 1
  28   13   30 1
  29   14   15 am
  30   14   28 2
  31   15   16 am
  32   15   41 1
  33   16   17 1
  34   16   27 2
  35   17   18 1
  36   17   29 1
  37   18   19 1
  38   18   22 2
  39   19   25 ar
  40   19   20 ar
  41   20   21 1
  42   20   24 ar
  43   21   22 1
  44   21   42 1
  45   22   43 1
  46   23   24 ar
  47   23   26 ar
  48   23   44 1
  49   24   45 1
  50   25   26 ar
  51   25   46 1
  52   26   47 1

#	End of record

