#	Name: ASD01148150
#	Creating user name:	WinNT
#	Creation time:	15. 06. 2019 19:02

#	Modifying user name:	WinNT
#	Modification time:	15. 06. 2019 19:02

#	Program:	/corina/corina34_cracker 3.40 0067  02.08.2006

@<TRIPOS>MOLECULE
ASD01148150
  34   35    0    0    0
SMALL
NO_CHARGES


@<TRIPOS>ATOM
   1 N1            -0.0161     1.3356     0.0094 N.pl3   
   2 C2             0.0021    -0.0041     0.0020 C.2     
   3 C3             1.1783    -0.7251    -0.0127 C.2     
   4 C4             2.4570     0.0055    -0.0210 C.2     
   5 C5             2.3887     1.4774    -0.0129 C.ar    
   6 C6             3.5463     2.2587    -0.0203 C.ar    
   7 C7             3.4007     3.6340    -0.0125 C.ar    
   8 C8             2.1272     4.1814     0.0022 C.ar    
   9 N9             1.0505     3.4245     0.0090 N.ar    
  10 C10            1.1281     2.0990     0.0026 C.ar    
  11 C11            1.1556    -2.1949    -0.0194 C.2     
  12 O12            0.0937    -2.7864    -0.0120 O.2     
  13 O13            2.3125    -2.8868    -0.0337 O.3     
  14 O14            3.5246    -0.5815    -0.0336 O.2     
  15 N15            4.5922     4.5122    -0.0193 N.pl3   
  16 O16            5.7082     4.0244    -0.0318 O.2     
  17 O17            4.4567     5.7226    -0.0123 O.2     
  18 C18           -1.3125     2.0178     0.0191 C.3     
  19 C19           -1.7571     2.2475     1.4650 C.3     
  20 C20            2.2141    -4.3354    -0.0396 C.3     
  21 C21            3.6187    -4.9419    -0.0560 C.3     
  22 H22           -0.9366    -0.5381     0.0081 H       
  23 H23            4.5253     1.8028    -0.0314 H       
  24 H24            2.0157     5.2556     0.0087 H       
  25 H25           -1.2220     2.9774    -0.4899 H       
  26 H26           -2.0509     1.4022    -0.4946 H       
  27 H27           -1.0187     2.8631     1.9787 H       
  28 H28           -2.7217     2.7551     1.4723 H       
  29 H29           -1.8476     1.2879     1.9741 H       
  30 H30            1.6854    -4.6673     0.8539 H       
  31 H31            1.6683    -4.6589    -0.9260 H       
  32 H32            4.1474    -4.6100    -0.9495 H       
  33 H33            4.1644    -4.6184     0.8304 H       
  34 H34            3.5448    -6.0294    -0.0604 H       
@<TRIPOS>BOND
   1    1    2 1
   2    1   10 1
   3    1   18 1
   4    2    3 2
   5    2   22 1
   6    3    4 1
   7    3   11 1
   8    4    5 1
   9    4   14 2
  10    5    6 ar
  11    5   10 ar
  12    6    7 ar
  13    6   23 1
  14    7    8 ar
  15    7   15 1
  16    8    9 ar
  17    8   24 1
  18    9   10 ar
  19   11   12 2
  20   11   13 1
  21   13   20 1
  22   15   16 2
  23   15   17 2
  24   18   19 1
  25   18   25 1
  26   18   26 1
  27   19   27 1
  28   19   28 1
  29   19   29 1
  30   20   21 1
  31   20   30 1
  32   20   31 1
  33   21   32 1
  34   21   33 1
  35   21   34 1

#	End of record

