#	Name: ASD08150003
#	Creating user name:	WinNT
#	Creation time:	15. 06. 2019 21:15

#	Modifying user name:	WinNT
#	Modification time:	15. 06. 2019 21:15

#	Program:	/corina/corina34_cracker 3.40 0067  02.08.2006

@<TRIPOS>MOLECULE
ASD08150003
  61   64    0    0    0
SMALL
NO_CHARGES


@<TRIPOS>ATOM
   1 O1            -0.0161     1.3329     0.0094 O.3     
   2 C2             0.0021    -0.0041     0.0020 C.2     
   3 N3             1.2341    -0.5298    -0.0131 N.am    
   4 C4             2.2199     0.5609    -0.0177 C.3     
   5 C5             1.3491     1.8401    -0.0009 C.3     
   6 C6             1.6394     2.5476     1.3379 C.3     
   7 C7             3.0415     2.0329     1.7466 C.3     
   8 C8             2.9998     0.5471     1.3122 C.3     
   9 O9            -1.0071    -0.6806     0.0085 O.2     
  10 C10            3.0808    -3.5942     0.0547 C.ar    
  11 N11            2.7922    -2.3014     0.0629 N.ar    
  12 C12            1.5324    -1.8877    -0.0225 C.ar    
  13 C13            0.5136    -2.8349    -0.1213 C.ar    
  14 C14            0.8569    -4.1753    -0.1264 C.ar    
  15 N15            2.1349    -4.5170    -0.0380 N.ar    
  16 O16            6.6090    -5.2773     1.3099 O.3     
  17 C17            5.9970    -5.8486     0.1504 C.3     
  18 C18            4.5176    -5.4561     0.1151 C.3     
  19 N19            4.4040    -3.9905     0.1394 N.3     
  20 C20            5.0434    -3.4384     1.3426 C.3     
  21 C21            6.5175    -3.8511     1.3657 C.3     
  22 Cl22          -0.3717    -5.3958    -0.2467 Cl      
  23 O23            1.6600     3.9653     1.1597 O.3     
  24 Si24           1.1914     4.8062     2.4763 Si      
  25 C25           -0.5537     4.3339     2.9262 C.3     
  26 C26            2.3274     4.4146     3.9000 C.3     
  27 C27            1.2653     6.6306     2.1066 C.3     
  28 C28            0.3324     6.9523     0.9374 C.3     
  29 C29            0.8258     7.4195     3.3417 C.3     
  30 C30            2.6985     7.0185     1.7371 C.3     
  31 H31            2.8720     0.5194    -0.8901 H       
  32 H32            1.5411     2.4776    -0.8640 H       
  33 H33            0.8977     2.2672     2.0857 H       
  34 H34            3.8224     2.5708     1.2089 H       
  35 H35            3.1849     2.1165     2.8239 H       
  36 H36            2.4749    -0.0527     2.0557 H       
  37 H37            4.0096     0.1666     1.1579 H       
  38 H38           -0.5199    -2.5291    -0.1918 H       
  39 H39            6.4941    -5.4752    -0.7449 H       
  40 H40            6.0846    -6.9343     0.1902 H       
  41 H41            4.0604    -5.8415    -0.7963 H       
  42 H42            4.0090    -5.8750     0.9834 H       
  43 H43            4.9700    -2.3510     1.3273 H       
  44 H44            4.5432    -3.8251     2.2306 H       
  45 H45            6.9816    -3.4923     2.2843 H       
  46 H46            7.0297    -3.4197     0.5057 H       
  47 H47           -0.5969     3.2665     3.1425 H       
  48 H48           -0.8668     4.8959     3.8061 H       
  49 H49           -1.2183     4.5631     2.0932 H       
  50 H50            3.3484     4.6909     3.6368 H       
  51 H51            2.0143     4.9766     4.7799 H       
  52 H52            2.2842     3.3471     4.1163 H       
  53 H53           -0.6886     6.6760     1.2006 H       
  54 H54            0.3756     8.0197     0.7211 H       
  55 H55            0.6455     6.3903     0.0575 H       
  56 H56            1.4904     7.1904     4.1747 H       
  57 H57            0.8690     8.4869     3.1254 H       
  58 H58           -0.1952     7.1432     3.6049 H       
  59 H59            3.0116     6.4565     0.8572 H       
  60 H60            2.7417     8.0859     1.5208 H       
  61 H61            3.3631     6.7894     2.5701 H       
@<TRIPOS>BOND
   1    1    2 1
   2    1    5 1
   3    2    3 am
   4    2    9 2
   5    3    4 1
   6    3   12 1
   7    4    5 1
   8    4    8 1
   9    4   31 1
  10    5    6 1
  11    5   32 1
  12    6    7 1
  13    6   23 1
  14    6   33 1
  15    7    8 1
  16    7   34 1
  17    7   35 1
  18    8   36 1
  19    8   37 1
  20   10   11 ar
  21   10   15 ar
  22   10   19 1
  23   11   12 ar
  24   12   13 ar
  25   13   14 ar
  26   13   38 1
  27   14   15 ar
  28   14   22 1
  29   16   17 1
  30   16   21 1
  31   17   18 1
  32   17   39 1
  33   17   40 1
  34   18   19 1
  35   18   41 1
  36   18   42 1
  37   19   20 1
  38   20   21 1
  39   20   43 1
  40   20   44 1
  41   21   45 1
  42   21   46 1
  43   23   24 1
  44   24   25 1
  45   24   26 1
  46   24   27 1
  47   25   47 1
  48   25   48 1
  49   25   49 1
  50   26   50 1
  51   26   51 1
  52   26   52 1
  53   27   28 1
  54   27   30 1
  55   27   29 1
  56   28   53 1
  57   28   54 1
  58   28   55 1
  59   29   56 1
  60   29   57 1
  61   29   58 1
  62   30   59 1
  63   30   60 1
  64   30   61 1

#	End of record

