#	Name: ASD01230184
#	Creating user name:	WinNT
#	Creation time:	15. 06. 2019 19:11

#	Modifying user name:	WinNT
#	Modification time:	15. 06. 2019 19:11

#	Program:	/corina/corina34_cracker 3.40 0067  02.08.2006

@<TRIPOS>MOLECULE
ASD01230184
  37   40    0    0    0
SMALL
NO_CHARGES


@<TRIPOS>ATOM
   1 C1             0.2651     1.7032     1.5039 C.ar    
   2 C2             0.3837     0.4239     2.0375 C.ar    
   3 C3             2.6414     0.2647     1.2089 C.ar    
   4 C4             2.5206     1.5452     0.6744 C.ar    
   5 C5             1.3233     2.2551     0.8293 C.ar    
   6 O6            -0.5012    -0.3423     2.7381 O.3     
   7 C7             0.0086    -1.6865     2.6616 C.3     
   8 O8             1.4274    -1.5060     2.4965 O.3     
   9 C9             1.5719    -0.2919     1.8884 C.ar    
  10 C10            1.0426     3.6457     0.3045 C.3     
  11 C11            3.7404     2.0007    -0.0219 C.2     
  12 C12            2.0294     4.4905    -0.4787 C.2     
  13 N13            3.9574     3.1427    -0.6326 N.2     
  14 N14            3.2369     4.1808    -0.8210 N.2     
  15 C15            1.5447     5.8510    -0.9089 C.3     
  16 C16            4.8659     1.0456    -0.0321 C.ar    
  17 C17            5.3223     0.5137    -1.2416 C.ar    
  18 C18            6.3721    -0.3768    -1.2476 C.ar    
  19 C19            6.9786    -0.7481    -0.0512 C.ar    
  20 C20            6.5266    -0.2205     1.1547 C.ar    
  21 C21            5.4813     0.6753     1.1672 C.ar    
  22 N22            8.0397    -1.6499    -0.0608 N.pl3   
  23 H23           -0.6559     2.2559     1.6163 H       
  24 H24            3.5614    -0.2891     1.0936 H       
  25 H25           -0.2038    -2.2296     3.5825 H       
  26 H26           -0.4136    -2.2078     1.8024 H       
  27 H27            0.1497     3.5643    -0.3154 H       
  28 H28            0.7440     4.2433     1.1657 H       
  29 H29            1.7796     6.5818    -0.1351 H       
  30 H30            2.0378     6.1351    -1.8386 H       
  31 H31            0.4663     5.8202    -1.0643 H       
  32 H32            4.8517     0.8009    -2.1702 H       
  33 H33            6.7252    -0.7881    -2.1817 H       
  34 H34            6.9992    -0.5109     2.0814 H       
  35 H35            5.1340     1.0878     2.1029 H       
  36 H36            8.3553    -2.0185    -0.9006 H       
  37 H37            8.4631    -1.9094     0.7724 H       
@<TRIPOS>BOND
   1    1    2 ar
   2    1    5 ar
   3    1   23 1
   4    2    9 ar
   5    2    6 1
   6    3    4 ar
   7    3    9 ar
   8    3   24 1
   9    4    5 ar
  10    4   11 1
  11    5   10 1
  12    6    7 1
  13    7    8 1
  14    7   25 1
  15    7   26 1
  16    8    9 1
  17   10   12 1
  18   10   27 1
  19   10   28 1
  20   11   13 2
  21   11   16 1
  22   12   14 2
  23   12   15 1
  24   13   14 1
  25   15   29 1
  26   15   30 1
  27   15   31 1
  28   16   17 ar
  29   16   21 ar
  30   17   18 ar
  31   17   32 1
  32   18   19 ar
  33   18   33 1
  34   19   20 ar
  35   19   22 1
  36   20   21 ar
  37   20   34 1
  38   21   35 1
  39   22   36 1
  40   22   37 1

#	End of record

