#	Name: ASD01209094
#	Creating user name:	WinNT
#	Creation time:	15. 06. 2019 19:10

#	Modifying user name:	WinNT
#	Modification time:	15. 06. 2019 19:10

#	Program:	/corina/corina34_cracker 3.40 0067  02.08.2006

@<TRIPOS>MOLECULE
ASD01209094
  68   70    0    0    0
SMALL
NO_CHARGES


@<TRIPOS>ATOM
   1 C1             0.6097    -1.3970     1.3513 C.3     
   2 C2             1.9255    -1.3147    -3.7640 C.ar    
   3 S3            -0.5715    -1.0955     0.0079 S.o2    
   4 O4            -1.4803    -2.1815    -0.1100 O.2     
   5 O5            -1.0351     0.2473     0.0436 O.2     
   6 N6             2.6969    -1.3824    -4.9296 N.am    
   7 C7             4.0243    -1.1564    -4.8733 C.2     
   8 N8             4.7834    -1.3221    -5.9746 N.am    
   9 O9             4.5371    -0.8030    -3.8291 O.2     
  10 C10            2.0614    -1.6990    -6.2111 C.3     
  11 C11            1.7418    -0.4015    -6.9562 C.3     
  12 C12            1.1913    -0.7201    -8.3573 C.3     
  13 C13           -0.2311    -0.1259    -8.4176 C.3     
  14 C14           -0.2206     0.9938    -7.3474 C.3     
  15 C15            0.6348     0.3753    -6.2139 C.3     
  16 C16            1.3258    -2.4609    -3.2589 C.ar    
  17 C17            0.5651    -2.3908    -2.1083 C.ar    
  18 C18            0.4003    -1.1809    -1.4594 C.ar    
  19 C19            0.9961    -0.0377    -1.9598 C.ar    
  20 C20            1.7628    -0.1023    -3.1068 C.ar    
  21 C21            6.1683    -1.1872    -5.8931 C.ar    
  22 C22            6.9438    -1.2415    -7.0478 C.ar    
  23 P23           10.7777     0.9726    -5.8502 P.3     
  24 O24           10.2038     1.5247    -7.0977 O.2     
  25 O25           12.3809     1.1164    -5.8875 O.3     
  26 O26           10.1955     1.7831    -4.5869 O.3     
  27 C27           13.0457     2.3628    -6.1029 C.3     
  28 C28           14.5598     2.1442    -6.0784 C.3     
  29 C29           10.2900     3.2036    -4.4628 C.3     
  30 C30            9.6397     3.6453    -3.1502 C.3     
  31 N31            8.2548    -1.1134    -6.9667 N.ar    
  32 C32            8.8315    -0.9338    -5.7905 C.ar    
  33 C33            8.0644    -0.8799    -4.6416 C.ar    
  34 N34            6.7502    -1.0014    -4.7158 N.ar    
  35 C35           10.3288    -0.7880    -5.7020 C.3     
  36 H36            1.0650    -2.3788     1.2213 H       
  37 H37            1.3853    -0.6314     1.3317 H       
  38 H38            0.0886    -1.3619     2.3080 H       
  39 H39            4.3660    -1.5352    -6.8238 H       
  40 H40            2.7385    -2.3059    -6.8123 H       
  41 H41            1.1393    -2.2521    -6.0326 H       
  42 H42            2.6388     0.2124    -7.0382 H       
  43 H43            1.8206    -0.2602    -9.1193 H       
  44 H44            1.1518    -1.7991    -8.5065 H       
  45 H45           -0.4285     0.2918    -9.4048 H       
  46 H46           -0.9725    -0.8850    -8.1682 H       
  47 H47            0.2495     1.8965    -7.7374 H       
  48 H48           -1.2315     1.2036    -6.9979 H       
  49 H49            0.0332    -0.3029    -5.6087 H       
  50 H50            1.0693     1.1587    -5.5930 H       
  51 H51            1.4539    -3.4061    -3.7655 H       
  52 H52            0.0982    -3.2817    -1.7152 H       
  53 H53            0.8652     0.9058    -1.4509 H       
  54 H54            2.2281     0.7908    -3.4969 H       
  55 H55            6.4732    -1.3885    -8.0088 H       
  56 H56           12.7528     2.7683    -7.0713 H       
  57 H57           12.7671     3.0639    -5.3161 H       
  58 H58           14.8527     1.7387    -5.1099 H       
  59 H59           14.8384     1.4431    -6.8651 H       
  60 H60           15.0669     3.0949    -6.2426 H       
  61 H61           11.3390     3.4996    -4.4662 H       
  62 H62            9.7763     3.6764    -5.2999 H       
  63 H63            8.5907     3.3493    -3.1468 H       
  64 H64           10.1534     3.1725    -2.3131 H       
  65 H65            9.7118     4.7288    -3.0556 H       
  66 H66            8.5391    -0.7338    -3.6826 H       
  67 H67           10.7971    -1.3516    -6.5090 H       
  68 H68           10.6751    -1.1717    -4.7423 H       
@<TRIPOS>BOND
   1    1    3 1
   2    1   36 1
   3    1   37 1
   4    1   38 1
   5    2    6 1
   6    2   16 ar
   7    2   20 ar
   8    3    4 2
   9    3    5 2
  10    3   18 1
  11    6    7 am
  12    6   10 1
  13    7    8 am
  14    7    9 2
  15    8   21 1
  16    8   39 1
  17   10   11 1
  18   10   40 1
  19   10   41 1
  20   11   12 1
  21   11   15 1
  22   11   42 1
  23   12   13 1
  24   12   43 1
  25   12   44 1
  26   13   14 1
  27   13   45 1
  28   13   46 1
  29   14   15 1
  30   14   47 1
  31   14   48 1
  32   15   49 1
  33   15   50 1
  34   16   17 ar
  35   16   51 1
  36   17   18 ar
  37   17   52 1
  38   18   19 ar
  39   19   20 ar
  40   19   53 1
  41   20   54 1
  42   21   22 ar
  43   21   34 ar
  44   22   31 ar
  45   22   55 1
  46   23   24 2
  47   23   25 1
  48   23   26 1
  49   23   35 1
  50   25   27 1
  51   26   29 1
  52   27   28 1
  53   27   56 1
  54   27   57 1
  55   28   58 1
  56   28   59 1
  57   28   60 1
  58   29   30 1
  59   29   61 1
  60   29   62 1
  61   30   63 1
  62   30   64 1
  63   30   65 1
  64   31   32 ar
  65   32   33 ar
  66   32   35 1
  67   33   34 ar
  68   33   66 1
  69   35   67 1
  70   35   68 1

#	End of record

