#	Name: ASD02508016
#	Creating user name:	WinNT
#	Creation time:	15. 06. 2019 20:23

#	Modifying user name:	WinNT
#	Modification time:	15. 06. 2019 20:23

#	Program:	/corina/corina34_cracker 3.40 0067  02.08.2006

@<TRIPOS>MOLECULE
ASD02508016
  49   51    0    0    0
SMALL
NO_CHARGES


@<TRIPOS>ATOM
   1 C1             0.4496     2.2298     0.0906 C.ar    
   2 F2             0.4773     0.8960     0.3040 F       
   3 C3             4.1717     2.4292    -2.6430 C.3     
   4 N4             3.4410     1.5663    -1.7043 N.am    
   5 C5             1.6282     2.9192    -0.1366 C.ar    
   6 C6             1.5983     4.2857    -0.3550 C.ar    
   7 C7             0.3897     4.9615    -0.3460 C.ar    
   8 C8            -0.7864     4.2722    -0.1185 C.ar    
   9 C9            -0.7584     2.9067     0.0935 C.ar    
  10 C10            5.3610     1.6425    -3.2077 C.3     
  11 N11            4.8797     0.3350    -3.6754 N.am    
  12 C12            4.1489    -0.5279    -2.7367 C.3     
  13 C13            2.9596     0.2588    -2.1720 C.3     
  14 C14            6.6928    -1.0174    -5.2433 C.ar    
  15 C15            6.7209    -2.3824    -5.0243 C.ar    
  16 C16            7.8681    -0.3271    -5.4763 C.ar    
  17 C17            9.0743    -0.9997    -5.4910 C.ar    
  18 C18            9.1060    -2.3706    -5.2715 C.ar    
  19 C19            7.9239    -3.0608    -5.0373 C.ar    
  20 F20            2.7479     4.9600    -0.5765 F       
  21 S21            3.1654     2.0581    -0.1472 S.o2    
  22 O22            2.9689     0.8769     0.6178 O.2     
  23 O23            4.1667     3.0207     0.1527 O.2     
  24 S24            5.1553    -0.1568    -5.2325 S.o2    
  25 O25            4.1543    -1.1198    -5.5322 O.2     
  26 O26            5.3512     1.0245    -5.9977 O.2     
  27 N27           10.3263    -3.0550    -5.2862 N.am    
  28 O28           11.3980    -1.3065    -4.4397 O.2     
  29 C29           11.4374    -2.4620    -4.8062 C.2     
  30 C30           12.7286    -3.2347    -4.7247 C.3     
  31 H31            3.5105     2.7269    -3.4568 H       
  32 H32            4.5338     3.3144    -2.1202 H       
  33 H33            0.3661     6.0278    -0.5164 H       
  34 H34           -1.7285     4.8001    -0.1113 H       
  35 H35           -1.6780     2.3690     0.2708 H       
  36 H36            5.7994     2.1906    -4.0417 H       
  37 H37            6.1085     1.4993    -2.4275 H       
  38 H38            3.7869    -1.4131    -3.2596 H       
  39 H39            4.8102    -0.8256    -1.9229 H       
  40 H40            2.5212    -0.2893    -1.3381 H       
  41 H41            2.2121     0.4019    -2.9523 H       
  42 H42            5.8012    -2.9187    -4.8426 H       
  43 H43            7.8428     0.7389    -5.6472 H       
  44 H44            9.9919    -0.4601    -5.6733 H       
  45 H45            7.9452    -4.1269    -4.8659 H       
  46 H46           10.3727    -3.9563    -5.6419 H       
  47 H47           13.2849    -3.1118    -5.6540 H       
  48 H48           13.3243    -2.8601    -3.8923 H       
  49 H49           12.5106    -4.2913    -4.5688 H       
@<TRIPOS>BOND
   1    1    2 1
   2    1    5 ar
   3    1    9 ar
   4    3    4 1
   5    3   10 1
   6    3   31 1
   7    3   32 1
   8    4   21 am
   9    4   13 1
  10    5    6 ar
  11    5   21 1
  12    6    7 ar
  13    6   20 1
  14    7    8 ar
  15    7   33 1
  16    8    9 ar
  17    8   34 1
  18    9   35 1
  19   10   11 1
  20   10   36 1
  21   10   37 1
  22   11   12 1
  23   11   24 am
  24   12   13 1
  25   12   38 1
  26   12   39 1
  27   13   40 1
  28   13   41 1
  29   14   15 ar
  30   14   16 ar
  31   14   24 1
  32   15   19 ar
  33   15   42 1
  34   16   17 ar
  35   16   43 1
  36   17   18 ar
  37   17   44 1
  38   18   19 ar
  39   18   27 1
  40   19   45 1
  41   21   22 2
  42   21   23 2
  43   24   25 2
  44   24   26 2
  45   27   29 am
  46   27   46 1
  47   28   29 2
  48   29   30 1
  49   30   47 1
  50   30   48 1
  51   30   49 1

#	End of record

