#	Name: ASD01140451
#	Creating user name:	WinNT
#	Creation time:	15. 06. 2019 19:00

#	Modifying user name:	WinNT
#	Modification time:	15. 06. 2019 19:00

#	Program:	/corina/corina34_cracker 3.40 0067  02.08.2006

@<TRIPOS>MOLECULE
ASD01140451
  48   51    0    0    0
SMALL
NO_CHARGES


@<TRIPOS>ATOM
   1 C1            -0.0178     1.4608     0.0101 C.3     
   2 C2            -2.7824     0.2700     4.7923 C.2     
   3 C3            -1.4819     0.1331     4.2737 C.2     
   4 N4            -0.4317     0.3761     5.0204 N.2     
   5 N5            -0.5843     0.7769     6.3489 N.pl3   
   6 C6            -1.8401     0.9201     6.8858 C.2     
   7 C7            -2.9656     0.6642     6.0813 C.2     
   8 C8             0.2886     1.0937     7.3473 C.2     
   9 N9            -0.4281     1.4053     8.4114 N.2     
  10 N10           -1.6830     1.3045     8.1440 N.2     
  11 O11           -1.3121    -0.2559     2.9848 O.3     
  12 C12            0.0322    -0.3772     2.5155 C.3     
  13 C13            0.0233    -0.8155     1.0736 C.2     
  14 H14            0.5346     0.5865     2.5992 H       
  15 H15            0.5616    -1.1164     3.1166 H       
  16 N16            0.0021    -0.0041     0.0020 N.pl3   
  17 N17            0.0019    -0.8397    -1.1268 N.2     
  18 C18            0.0224    -2.0700    -0.6858 C.2     
  19 N19            0.0405    -2.0519     0.6463 N.2     
  20 H20            0.0274    -2.9573    -1.3015 H       
  21 C21            1.7634     1.0882     7.2556 C.ar    
  22 C22            2.5358     1.4369     8.3643 C.ar    
  23 C23            3.9146     1.4293     8.2718 C.ar    
  24 C24            4.5302     1.0765     7.0818 C.ar    
  25 C25            3.7704     0.7302     5.9789 C.ar    
  26 C26            2.3912     0.7281     6.0594 C.ar    
  27 F27            4.6639     1.7671     9.3441 F       
  28 F28            1.6506     0.3892     4.9815 F       
  29 C29           -3.9751    -0.0146     3.9163 C.3     
  30 C30           -5.2602     0.2079     4.7162 C.3     
  31 C31           -3.9568     0.9249     2.7088 C.3     
  32 C32           -3.9193    -1.4657     3.4343 C.3     
  33 H33            1.0048     1.8381     0.0023 H       
  34 H34           -0.5450     1.8219    -0.8730 H       
  35 H35           -0.5280     1.8123     0.9069 H       
  36 H36           -3.9619     0.7709     6.4844 H       
  37 H37            2.0570     1.7125     9.2923 H       
  38 H38            5.6081     1.0722     7.0149 H       
  39 H39            4.2565     0.4566     5.0541 H       
  40 H40           -5.3000     1.2417     5.0596 H       
  41 H41           -6.1229     0.0021     4.0826 H       
  42 H42           -5.2732    -0.4614     5.5764 H       
  43 H43           -3.0413     0.7663     2.1389 H       
  44 H44           -4.8195     0.7190     2.0752 H       
  45 H45           -3.9967     1.9586     3.0522 H       
  46 H46           -3.9323    -2.1350     4.2945 H       
  47 H47           -4.7819    -1.6715     2.8007 H       
  48 H48           -3.0037    -1.6242     2.8644 H       
@<TRIPOS>BOND
   1    1   16 1
   2    1   33 1
   3    1   34 1
   4    1   35 1
   5    2    3 1
   6    2   29 1
   7    2    7 2
   8    3    4 2
   9    3   11 1
  10    4    5 1
  11    5    6 1
  12    5    8 1
  13    6    7 1
  14    6   10 2
  15    7   36 1
  16    8    9 2
  17    8   21 1
  18    9   10 1
  19   11   12 1
  20   12   13 1
  21   12   14 1
  22   12   15 1
  23   13   16 1
  24   13   19 2
  25   16   17 1
  26   17   18 2
  27   18   19 1
  28   18   20 1
  29   21   22 ar
  30   21   26 ar
  31   22   23 ar
  32   22   37 1
  33   23   24 ar
  34   23   27 1
  35   24   25 ar
  36   24   38 1
  37   25   26 ar
  38   25   39 1
  39   26   28 1
  40   29   30 1
  41   29   31 1
  42   29   32 1
  43   30   40 1
  44   30   41 1
  45   30   42 1
  46   31   43 1
  47   31   44 1
  48   31   45 1
  49   32   46 1
  50   32   47 1
  51   32   48 1

#	End of record

