#	Name: ASD02030047
#	Creating user name:	WinNT
#	Creation time:	15. 06. 2019 20:14

#	Modifying user name:	WinNT
#	Modification time:	15. 06. 2019 20:14

#	Program:	/corina/corina34_cracker 3.40 0067  02.08.2006

@<TRIPOS>MOLECULE
ASD02030047
  30   32    0    0    0
SMALL
NO_CHARGES


@<TRIPOS>ATOM
   1 C1             0.0039     1.3546    -0.1104 C.2     
   2 C2             0.0316    -0.0070    -0.2072 C.2     
   3 C3            -1.3023    -0.4426    -0.1559 C.2     
   4 C4            -2.0754     0.6585    -0.0316 C.2     
   5 O5            -1.2839     1.7393     0.0013 O.3     
   6 C6             1.1727     2.2444    -0.1198 C.2     
   7 C7             0.9970     3.6448    -0.0113 C.2     
   8 O8             2.2945     1.7766    -0.2213 O.2     
   9 C9             2.0724     4.4530     0.1081 C.2     
  10 N10            3.3147     3.9143     0.2992 N.pl3   
  11 C11            4.4439     4.7407     0.2941 C.ar    
  12 C12            4.2984     6.1144     0.0936 C.ar    
  13 C13            5.6963     4.1940     0.4931 C.ar    
  14 C14            5.3868     6.9374     0.0850 C.ar    
  15 C15            6.6621     6.4110     0.2781 C.ar    
  16 C16            6.8202     5.0277     0.4869 C.ar    
  17 N17            7.9177     6.9625     0.3228 N.pl3   
  18 N18            8.8540     5.9488     0.5503 N.2     
  19 C19            8.2519     4.7984     0.6533 C.2     
  20 H20            0.9094    -0.6285    -0.3047 H       
  21 H21           -1.6456    -1.4653    -0.2063 H       
  22 H22           -3.1533     0.6660     0.0350 H       
  23 H23            0.0030     4.0669    -0.0239 H       
  24 H24            1.9512     5.5248     0.0527 H       
  25 H25            3.4131     2.9594     0.4384 H       
  26 H26            3.3132     6.5305    -0.0568 H       
  27 H27            5.8074     3.1316     0.6526 H       
  28 H28            5.2595     7.9983    -0.0720 H       
  29 H29            8.1230     7.9043     0.2139 H       
  30 H30            8.7273     3.8449     0.8294 H       
@<TRIPOS>BOND
   1    1    2 2
   2    1    6 1
   3    1    5 1
   4    2    3 1
   5    2   20 1
   6    3    4 2
   7    3   21 1
   8    4    5 1
   9    4   22 1
  10    6    7 1
  11    6    8 2
  12    7    9 2
  13    7   23 1
  14    9   10 1
  15    9   24 1
  16   10   11 1
  17   10   25 1
  18   11   12 ar
  19   11   13 ar
  20   12   14 ar
  21   12   26 1
  22   13   16 ar
  23   13   27 1
  24   14   15 ar
  25   14   28 1
  26   15   16 ar
  27   15   17 1
  28   16   19 1
  29   17   18 1
  30   17   29 1
  31   18   19 2
  32   19   30 1

#	End of record

