#	Name: ASD01810808
#	Creating user name:	WinNT
#	Creation time:	15. 06. 2019 19:25

#	Modifying user name:	WinNT
#	Modification time:	15. 06. 2019 19:25

#	Program:	/corina/corina34_cracker 3.40 0067  02.08.2006

@<TRIPOS>MOLECULE
ASD01810808
  66   70    0    0    0
SMALL
NO_CHARGES


@<TRIPOS>ATOM
   1 C1            -0.0181     1.4264     0.1675 C.ar    
   2 C2             0.0023     0.0443     0.0276 C.ar    
   3 C3            -1.1793    -0.6574    -0.1241 C.ar    
   4 C4            -2.3867     0.0103    -0.1376 C.ar    
   5 C5            -2.4179     1.3991     0.0026 C.ar    
   6 C6            -1.2263     2.1061     0.1609 C.ar    
   7 N7             1.1811     2.1321     0.3208 N.am    
   8 C8             1.1930     3.3043     0.9859 C.2     
   9 O9             2.3597     3.9354     1.2173 O.3     
  10 O10            0.1507     3.7917     1.3766 O.2     
  11 C11            2.2967     5.1935     1.9393 C.3     
  12 C12            2.4461     4.9540     3.4543 C.3     
  13 O13            3.6534     5.6116     3.8739 O.3     
  14 C14            3.8855     6.6965     2.9499 C.3     
  15 C15            3.5067     6.0882     1.5755 C.3     
  16 C16            1.3168    -0.6926     0.0409 C.3     
  17 C17           -3.7103     2.1172    -0.0115 C.2     
  18 N18           -4.8119     1.5322     0.4990 N.am    
  19 O19           -3.7792     3.2352    -0.4836 O.2     
  20 C20           -6.1248     2.1822     0.3870 C.3     
  21 C21           -6.7453     2.2841     1.7839 C.3     
  22 C22           -6.7846     0.8941     2.4230 C.3     
  23 C23           -5.3591     0.3560     2.5658 C.3     
  24 C24           -4.7237     0.2296     1.1728 C.3     
  25 C25           -7.4256     0.9852     3.7838 C.ar    
  26 C26           -7.8543    -0.1655     4.4214 C.ar    
  27 C27           -8.4414    -0.0895     5.6674 C.ar    
  28 C28           -8.6026     1.1524     6.2851 C.ar    
  29 C29           -8.1677     2.3095     5.6359 C.ar    
  30 C30           -7.5774     2.2185     4.3924 C.ar    
  31 C31           -9.2117     1.2389     7.5782 C.1     
  32 N32           -9.6948     1.3075     8.6040 N.1     
  33 C33            1.4312    -1.7280     1.1721 C.3     
  34 C34            2.1255    -2.6476     0.1538 C.3     
  35 C35            1.3699    -1.8754    -0.9405 C.3     
  36 F36           -7.5301     0.0300     1.6138 F       
  37 H37           -1.1572    -1.7317    -0.2327 H       
  38 H38           -3.3075    -0.5412    -0.2571 H       
  39 H39           -1.2442     3.1804     0.2703 H       
  40 H40            2.0036     1.7775    -0.0516 H       
  41 H41            1.3605     5.7089     1.7250 H       
  42 H42            1.5912     5.3765     3.9823 H       
  43 H43            2.5171     3.8851     3.6553 H       
  44 H44            3.2426     7.5448     3.1845 H       
  45 H45            4.9342     6.9934     2.9622 H       
  46 H46            4.3259     5.4907     1.1755 H       
  47 H47            3.2160     6.8681     0.8717 H       
  48 H48            2.1764    -0.0261    -0.0296 H       
  49 H49           -6.0036     3.1808    -0.0328 H       
  50 H50           -6.7726     1.5885    -0.2581 H       
  51 H51           -6.1440     2.9516     2.4012 H       
  52 H52           -7.7591     2.6766     1.7039 H       
  53 H53           -4.7708     1.0416     3.1758 H       
  54 H54           -5.3861    -0.6239     3.0423 H       
  55 H55           -5.2583    -0.5239     0.5944 H       
  56 H56           -3.6773    -0.0584     1.2733 H       
  57 H57           -7.7293    -1.1254     3.9424 H       
  58 H58           -8.7759    -0.9884     6.1639 H       
  59 H59           -8.2897     3.2733     6.1078 H       
  60 H60           -7.2405     3.1127     3.8891 H       
  61 H61            2.0803    -1.4123     1.9889 H       
  62 H62            0.4688    -2.1062     1.5169 H       
  63 H63            3.2068    -2.5165     0.1132 H       
  64 H64            1.8276    -3.6930     0.2354 H       
  65 H65            0.3907    -2.2939    -1.1733 H       
  66 H66            1.9694    -1.6787    -1.8293 H       
@<TRIPOS>BOND
   1    1    2 ar
   2    1    7 1
   3    1    6 ar
   4    2    3 ar
   5    2   16 1
   6    3    4 ar
   7    3   37 1
   8    4    5 ar
   9    4   38 1
  10    5    6 ar
  11    5   17 1
  12    6   39 1
  13    7    8 am
  14    7   40 1
  15    8    9 1
  16    8   10 2
  17    9   11 1
  18   11   12 1
  19   11   15 1
  20   11   41 1
  21   12   13 1
  22   12   42 1
  23   12   43 1
  24   13   14 1
  25   14   15 1
  26   14   44 1
  27   14   45 1
  28   15   46 1
  29   15   47 1
  30   16   33 1
  31   16   35 1
  32   16   48 1
  33   17   18 am
  34   17   19 2
  35   18   20 1
  36   18   24 1
  37   20   21 1
  38   20   49 1
  39   20   50 1
  40   21   22 1
  41   21   51 1
  42   21   52 1
  43   22   23 1
  44   22   25 1
  45   22   36 1
  46   23   24 1
  47   23   53 1
  48   23   54 1
  49   24   55 1
  50   24   56 1
  51   25   26 ar
  52   25   30 ar
  53   26   27 ar
  54   26   57 1
  55   27   28 ar
  56   27   58 1
  57   28   29 ar
  58   28   31 1
  59   29   30 ar
  60   29   59 1
  61   30   60 1
  62   31   32 3
  63   33   34 1
  64   33   61 1
  65   33   62 1
  66   34   35 1
  67   34   63 1
  68   34   64 1
  69   35   65 1
  70   35   66 1

#	End of record

