#	Name: ASD01150417
#	Creating user name:	WinNT
#	Creation time:	15. 06. 2019 19:04

#	Modifying user name:	WinNT
#	Modification time:	15. 06. 2019 19:04

#	Program:	/corina/corina34_cracker 3.40 0067  02.08.2006

@<TRIPOS>MOLECULE
ASD01150417
  47   49    0    0    0
SMALL
NO_CHARGES


@<TRIPOS>ATOM
   1 C1            -0.0173     1.3892     0.7951 C.ar    
   2 C2             0.1195     0.0204     0.9231 C.ar    
   3 C3             1.0296    -0.6628     0.1364 C.ar    
   4 C4             1.8091     0.0276    -0.7856 C.ar    
   5 C5             1.6729     1.4017    -0.9153 C.ar    
   6 C6             0.7588     2.0837    -0.1244 C.ar    
   7 N7             0.6187     3.4708    -0.2533 N.am    
   8 C8            -0.6087     4.0044    -0.3854 C.2     
   9 N9            -0.7768     5.3342    -0.5113 N.am    
  10 C10            0.2947     6.1538    -0.5064 C.2     
  11 C11            1.6342     5.5775    -0.3623 C.2     
  12 N12            1.7577     4.2847    -0.2373 N.2     
  13 O13            0.1506     7.3571    -0.6206 O.2     
  14 C14           -2.1241     5.8914    -0.6543 C.3     
  15 O15           -1.5813     3.2747    -0.3915 O.2     
  16 C16           -2.6859     6.2037     0.7088 C.ar    
  17 C17           -2.4809     7.4493     1.2721 C.ar    
  18 C18           -2.9962     7.7357     2.5224 C.ar    
  19 C19           -3.7167     6.7766     3.2093 C.ar    
  20 C20           -3.9224     5.5313     2.6456 C.ar    
  21 C21           -3.4109     5.2463     1.3934 C.ar    
  22 N22            2.7308    -0.6638    -1.5817 N.am    
  23 C23            3.8395    -0.0395    -2.0259 C.2     
  24 O24            4.0060     1.1393    -1.7934 O.2     
  25 C25            4.8724    -0.8058    -2.8113 C.3     
  26 C26            2.8514     6.4660    -0.3530 C.3     
  27 C27           -4.2776     7.0885     4.5728 C.3     
  28 F28            1.1614    -2.0013     0.2642 F       
  29 H29           -0.7317     1.9194     1.4074 H       
  30 H30           -0.4848    -0.5171     1.6388 H       
  31 H31            2.2771     1.9401    -1.6306 H       
  32 H32           -2.0783     6.8054    -1.2465 H       
  33 H33           -2.7661     5.1663    -1.1544 H       
  34 H34           -1.9180     8.1986     0.7354 H       
  35 H35           -2.8354     8.7087     2.9628 H       
  36 H36           -4.4851     4.7819     3.1824 H       
  37 H37           -3.5716     4.2734     0.9530 H       
  38 H38            2.5711    -1.5921    -1.8135 H       
  39 H39            4.4163    -1.2078    -3.7160 H       
  40 H40            5.6910    -0.1391    -3.0824 H       
  41 H41            5.2570    -1.6248    -2.2035 H       
  42 H42            3.0728     6.7682     0.6706 H       
  43 H43            3.7018     5.9214    -0.7631 H       
  44 H44            2.6599     7.3510    -0.9598 H       
  45 H45           -5.2798     7.5039     4.4672 H       
  46 H46           -4.3238     6.1743     5.1645 H       
  47 H47           -3.6349     7.8129     5.0731 H       
@<TRIPOS>BOND
   1    1    2 ar
   2    1    6 ar
   3    1   29 1
   4    2    3 ar
   5    2   30 1
   6    3    4 ar
   7    3   28 1
   8    4    5 ar
   9    4   22 1
  10    5    6 ar
  11    5   31 1
  12    6    7 1
  13    7    8 am
  14    7   12 1
  15    8    9 am
  16    8   15 2
  17    9   10 am
  18    9   14 1
  19   10   11 1
  20   10   13 2
  21   11   12 2
  22   11   26 1
  23   14   16 1
  24   14   32 1
  25   14   33 1
  26   16   17 ar
  27   16   21 ar
  28   17   18 ar
  29   17   34 1
  30   18   19 ar
  31   18   35 1
  32   19   20 ar
  33   19   27 1
  34   20   21 ar
  35   20   36 1
  36   21   37 1
  37   22   23 am
  38   22   38 1
  39   23   24 2
  40   23   25 1
  41   25   39 1
  42   25   40 1
  43   25   41 1
  44   26   42 1
  45   26   43 1
  46   26   44 1
  47   27   45 1
  48   27   46 1
  49   27   47 1

#	End of record

