#	Name: ASD01230738
#	Creating user name:	WinNT
#	Creation time:	15. 06. 2019 19:15

#	Modifying user name:	WinNT
#	Modification time:	15. 06. 2019 19:15

#	Program:	/corina/corina34_cracker 3.40 0067  02.08.2006

@<TRIPOS>MOLECULE
ASD01230738
  43   46    0    0    0
SMALL
NO_CHARGES


@<TRIPOS>ATOM
   1 C1            -0.0117     1.3655    -0.0047 C.2     
   2 C2             0.0071    -0.0079     0.1053 C.2     
   3 C3            -1.2082    -0.7063     0.1045 C.2     
   4 C4            -2.3768    -0.0527    -0.0122 C.2     
   5 N5            -2.4533     1.3118    -0.1419 N.pl3   
   6 C6            -1.3117     2.0613    -0.1123 C.2     
   7 C7            -3.7960     1.8728    -0.3132 C.3     
   8 C8            -3.9089     3.2237     0.3993 C.3     
   9 S9            -2.6181     4.3047    -0.2936 S.o2    
  10 N10           -1.2586     3.3699    -0.1705 N.am    
  11 C11            1.2533     2.1348    -0.0088 C.ar    
  12 C12            2.1642     1.9774    -1.0545 C.ar    
  13 O13           -2.8086     4.4864    -1.6900 O.2     
  14 O14           -2.3682     5.4075     0.5670 O.2     
  15 C15            1.5348     3.0229     1.0295 C.ar    
  16 C16            2.7142     3.7385     1.0233 C.ar    
  17 C17            3.6212     3.5764    -0.0142 C.ar    
  18 C18            3.3424     2.6964    -1.0546 C.ar    
  19 O19            4.7822     4.2834    -0.0167 O.3     
  20 C20            4.8137     5.4539    -0.7018 C.ar    
  21 C21            5.9482     6.2534    -0.6458 C.ar    
  22 F22            4.2281     2.5409    -2.0628 F       
  23 C23            5.9674     7.4452    -1.3495 C.ar    
  24 C24            7.1790     8.3408    -1.3153 C.3     
  25 C25            4.8458     7.7964    -2.0875 C.ar    
  26 C26            3.7524     6.9528    -2.0978 C.ar    
  27 N27            3.7656     5.8204    -1.4212 N.ar    
  28 F28            8.0475     7.9902    -2.3545 F       
  29 F29            6.7791     9.6723    -1.4710 F       
  30 F30            7.8350     8.1912    -0.0888 F       
  31 H31            0.9440    -0.5383     0.1905 H       
  32 H32           -1.2056    -1.7822     0.1983 H       
  33 H33           -3.2931    -0.6243    -0.0039 H       
  34 H34           -3.9959     2.0091    -1.3760 H       
  35 H35           -4.5297     1.1835     0.1047 H       
  36 H36           -4.8926     3.6575     0.2196 H       
  37 H37           -3.7492     3.0936     1.4697 H       
  38 H38            1.9477     1.2937    -1.8620 H       
  39 H39            0.8297     3.1504     1.8375 H       
  40 H40            2.9317     4.4262     1.8270 H       
  41 H41            6.8036     5.9493    -0.0609 H       
  42 H42            4.8280     8.7197    -2.6476 H       
  43 H43            2.8770     7.2215    -2.6705 H       
@<TRIPOS>BOND
   1    1    2 2
   2    1   11 1
   3    1    6 1
   4    2    3 1
   5    2   31 1
   6    3    4 2
   7    3   32 1
   8    4    5 1
   9    4   33 1
  10    5    6 1
  11    5    7 1
  12    6   10 2
  13    7    8 1
  14    7   34 1
  15    7   35 1
  16    8    9 1
  17    8   36 1
  18    8   37 1
  19    9   10 am
  20    9   13 2
  21    9   14 2
  22   11   12 ar
  23   11   15 ar
  24   12   18 ar
  25   12   38 1
  26   15   16 ar
  27   15   39 1
  28   16   17 ar
  29   16   40 1
  30   17   18 ar
  31   17   19 1
  32   18   22 1
  33   19   20 1
  34   20   21 ar
  35   20   27 ar
  36   21   23 ar
  37   21   41 1
  38   23   24 1
  39   23   25 ar
  40   24   28 1
  41   24   29 1
  42   24   30 1
  43   25   26 ar
  44   25   42 1
  45   26   27 ar
  46   26   43 1

#	End of record

