#	Name: ASD05380125
#	Creating user name:	WinNT
#	Creation time:	15. 06. 2019 20:59

#	Modifying user name:	WinNT
#	Modification time:	15. 06. 2019 20:59

#	Program:	/corina/corina34_cracker 3.40 0067  02.08.2006

@<TRIPOS>MOLECULE
ASD05380125
  55   59    0    0    0
SMALL
NO_CHARGES


@<TRIPOS>ATOM
   1 C1            -0.2684     1.7425    -0.3091 C.ar    
   2 C2            -0.0026     0.3792    -0.5682 C.ar    
   3 C3             0.6336     2.7203    -0.7226 C.ar    
   4 C4             1.7834     2.3471    -1.3843 C.ar    
   5 C5             2.0476     1.0084    -1.6409 C.ar    
   6 C6             1.1694     0.0264    -1.2397 C.ar    
   7 N7            -0.8953    -0.5554    -0.1562 N.2     
   8 C8            -1.9850    -0.2271     0.4687 C.2     
   9 N9            -2.3214     1.0586     0.7600 N.am    
  10 C10           -1.5078     2.0806     0.4057 C.2     
  11 C11           -3.5175     1.3266     1.4382 C.ar    
  12 C12           -4.6870     1.5524     0.7218 C.ar    
  13 C13           -5.8974     1.8588     2.7655 C.ar    
  14 C14           -2.9252    -1.3259     0.8925 C.3     
  15 N15           -2.9260    -2.3852    -0.1195 N.pl3   
  16 C16           -4.0246    -3.2161    -0.2503 C.ar    
  17 N17           -5.0860    -3.0660     0.5341 N.ar    
  18 O18           -1.7961     3.2356     0.6598 O.2     
  19 C19           -4.0438    -4.2334    -1.2200 C.ar    
  20 C20           -5.1853    -5.0473    -1.3089 C.ar    
  21 N21           -6.2014    -4.8305    -0.4800 N.ar    
  22 C22           -6.1441    -3.8579     0.4154 C.ar    
  23 N23           -3.1724    -4.6624    -2.1660 N.2     
  24 C24           -3.6942    -5.6630    -2.8134 C.2     
  25 N25           -4.9366    -5.9389    -2.3215 N.pl3   
  26 C26           -5.8697     1.8172     1.3862 C.ar    
  27 C27           -4.7295     1.6278     3.4942 C.ar    
  28 C28           -3.5359     1.3609     2.8235 C.ar    
  29 C29           -2.4652    -1.9019     2.2332 C.3     
  30 C30           -4.7562     1.6717     4.9719 C.2     
  31 C31            0.3539     4.1756    -0.4489 C.3     
  32 N32           -7.2254    -3.6601     1.2582 N.pl3   
  33 O33           -3.7380     1.4702     5.6044 O.2     
  34 N34           -5.9096     1.9351     5.6175 N.am    
  35 H35            2.4849     3.1025    -1.7062 H       
  36 H36            2.9532     0.7338    -2.1613 H       
  37 H37            1.3858    -1.0116    -1.4447 H       
  38 H38           -4.6714     1.5211    -0.3576 H       
  39 H39           -6.8235     2.0660     3.2810 H       
  40 H40           -3.9323    -0.9223     0.9968 H       
  41 H41           -2.1564    -2.5041    -0.6979 H       
  42 H42           -3.2149    -6.1961    -3.6211 H       
  43 H43           -5.5341    -6.6377    -2.6306 H       
  44 H44           -6.7751     1.9925     0.8241 H       
  45 H45           -2.6291     1.1814     3.3819 H       
  46 H46           -2.4955    -1.1214     2.9935 H       
  47 H47           -3.1264    -2.7182     2.5240 H       
  48 H48           -1.4460    -2.2763     2.1373 H       
  49 H49            0.6738     4.4229     0.5633 H       
  50 H50            0.9003     4.7913    -1.1633 H       
  51 H51           -0.7149     4.3651    -0.5486 H       
  52 H52           -7.2007    -2.9522     1.9209 H       
  53 H53           -8.0073    -4.2295     1.1857 H       
  54 H54           -6.7221     2.0959     5.1127 H       
  55 H55           -5.9271     1.9639     6.5869 H       
@<TRIPOS>BOND
   1    1    2 ar
   2    1    3 ar
   3    1   10 1
   4    2    7 1
   5    2    6 ar
   6    3    4 ar
   7    3   31 1
   8    4    5 ar
   9    4   35 1
  10    5    6 ar
  11    5   36 1
  12    6   37 1
  13    7    8 2
  14    8    9 1
  15    8   14 1
  16    9   10 am
  17    9   11 1
  18   10   18 2
  19   11   12 ar
  20   11   28 ar
  21   12   26 ar
  22   12   38 1
  23   13   26 ar
  24   13   27 ar
  25   13   39 1
  26   14   15 1
  27   14   29 1
  28   14   40 1
  29   15   16 1
  30   15   41 1
  31   16   17 ar
  32   16   19 ar
  33   17   22 ar
  34   19   20 ar
  35   19   23 1
  36   20   21 ar
  37   20   25 1
  38   21   22 ar
  39   22   32 1
  40   23   24 2
  41   24   25 1
  42   24   42 1
  43   25   43 1
  44   26   44 1
  45   27   30 1
  46   27   28 ar
  47   28   45 1
  48   29   46 1
  49   29   47 1
  50   29   48 1
  51   30   33 2
  52   30   34 am
  53   31   49 1
  54   31   50 1
  55   31   51 1
  56   32   52 1
  57   32   53 1
  58   34   54 1
  59   34   55 1

#	End of record

