#	Name: ASD01148562
#	Creating user name:	WinNT
#	Creation time:	15. 06. 2019 19:02

#	Modifying user name:	WinNT
#	Modification time:	15. 06. 2019 19:02

#	Program:	/corina/corina34_cracker 3.40 0067  02.08.2006

@<TRIPOS>MOLECULE
ASD01148562
  58   62    0    0    0
SMALL
NO_CHARGES


@<TRIPOS>ATOM
   1 C1            -0.0169     1.4364    -0.0252 C.ar    
   2 C2             0.0192     0.0536    -0.0359 C.ar    
   3 C3            -1.1605    -0.6687    -0.0202 C.ar    
   4 C4            -2.3757    -0.0077     0.0061 C.ar    
   5 C5            -2.4112     1.3740     0.0167 C.ar    
   6 C6            -1.2327     2.0962     0.0064 C.ar    
   7 C7            -3.7351     2.0932     0.0454 C.3     
   8 O8            -4.7244     1.3251     0.7600 O.3     
   9 C9            -3.6497     3.3763     0.9060 C.3     
  10 C10           -4.1226     2.8945     2.2643 C.2     
  11 N11           -4.7049     1.7514     2.1080 N.2     
  12 C12           -3.9476     3.6065     3.5418 C.ar    
  13 C13           -4.4544     3.0257     4.7827 C.ar    
  14 C14           -3.2950     4.8310     3.5753 C.ar    
  15 C15           -3.1166     5.5215     4.7610 C.ar    
  16 C16           -3.5822     5.0192     5.9682 C.ar    
  17 C17           -4.2721     3.7319     5.9953 C.ar    
  18 C18           -3.3770     5.7774     7.2159 C.2     
  19 O19           -3.8776     5.3879     8.2534 O.2     
  20 N20           -2.6345     6.9022     7.2065 N.am    
  21 C21           -4.7581     3.1865     7.1903 C.ar    
  22 C22           -5.1135     1.7898     4.7972 C.ar    
  23 C23           -4.2112     2.4148    -1.3727 C.3     
  24 F24           -4.3447     1.2274    -2.1003 F       
  25 F25           -5.4476     3.0667    -1.3130 F       
  26 F26           -3.2765     3.2444    -2.0015 F       
  27 Cl27          -1.1162    -2.4041    -0.0342 Cl      
  28 Cl28           1.4630     2.3437    -0.0442 Cl      
  29 N29           -2.4395     7.6227     8.3921 N.pl3   
  30 C30           -1.5156     7.1194     9.4116 C.3     
  31 C31           -3.1259     8.8208     8.6022 C.ar    
  32 C32           -2.9337     9.5365     9.7772 C.ar    
  33 C33           -3.6137    10.7210     9.9814 C.ar    
  34 C34           -4.4851    11.1949     9.0179 C.ar    
  35 C35           -4.6791    10.4848     7.8473 C.ar    
  36 C36           -3.9980     9.3024     7.6341 C.ar    
  37 C37           -5.5702     1.2842     5.9779 C.ar    
  38 C38           -5.3958     1.9817     7.1703 C.ar    
  39 H39            0.9680    -0.4618    -0.0567 H       
  40 H40           -3.2968    -0.5716     0.0179 H       
  41 H41           -1.2610     3.1758     0.0148 H       
  42 H42           -2.6231     3.7385     0.9598 H       
  43 H43           -4.3135     4.1483     0.5166 H       
  44 H44           -2.9178     5.2539     2.6559 H       
  45 H45           -2.6037     6.4718     4.7469 H       
  46 H46           -2.2352     7.2129     6.3789 H       
  47 H47           -4.6281     3.7170     8.1220 H       
  48 H48           -5.2593     1.2410     3.8785 H       
  49 H49           -0.5168     7.5129     9.2228 H       
  50 H50           -1.8523     7.4404    10.3973 H       
  51 H51           -1.4903     6.0304     9.3731 H       
  52 H52           -2.2536     9.1667    10.5302 H       
  53 H53           -3.4650    11.2777    10.8949 H       
  54 H54           -5.0156    12.1216     9.1801 H       
  55 H55           -5.3606    10.8575     7.0969 H       
  56 H56           -4.1499     8.7483     6.7196 H       
  57 H57           -6.0783     0.3312     5.9880 H       
  58 H58           -5.7698     1.5618     8.0924 H       
@<TRIPOS>BOND
   1    1    2 ar
   2    1   28 1
   3    1    6 ar
   4    2    3 ar
   5    2   39 1
   6    3    4 ar
   7    3   27 1
   8    4    5 ar
   9    4   40 1
  10    5    6 ar
  11    5    7 1
  12    6   41 1
  13    7    8 1
  14    7    9 1
  15    7   23 1
  16    8   11 1
  17    9   10 1
  18    9   42 1
  19    9   43 1
  20   10   11 2
  21   10   12 1
  22   12   13 ar
  23   12   14 ar
  24   13   22 ar
  25   13   17 ar
  26   14   15 ar
  27   14   44 1
  28   15   16 ar
  29   15   45 1
  30   16   17 ar
  31   16   18 1
  32   17   21 ar
  33   18   19 2
  34   18   20 am
  35   20   29 1
  36   20   46 1
  37   21   38 ar
  38   21   47 1
  39   22   37 ar
  40   22   48 1
  41   23   24 1
  42   23   25 1
  43   23   26 1
  44   29   30 1
  45   29   31 1
  46   30   49 1
  47   30   50 1
  48   30   51 1
  49   31   32 ar
  50   31   36 ar
  51   32   33 ar
  52   32   52 1
  53   33   34 ar
  54   33   53 1
  55   34   35 ar
  56   34   54 1
  57   35   36 ar
  58   35   55 1
  59   36   56 1
  60   37   38 ar
  61   37   57 1
  62   38   58 1

#	End of record

