#	Name: ASD00069101
#	Creating user name:	WinNT
#	Creation time:	15. 06. 2019 18:29

#	Modifying user name:	WinNT
#	Modification time:	15. 06. 2019 18:29

#	Program:	/corina/corina34_cracker 3.40 0067  02.08.2006

@<TRIPOS>MOLECULE
ASD00069101
  60   65    0    0    0
SMALL
NO_CHARGES


@<TRIPOS>ATOM
   1 N1            -0.0169     1.3941     0.0097 N.pl3   
   2 N2             0.0021    -0.0041     0.0020 N.2     
   3 C3             1.2428    -0.4348    -0.0121 C.2     
   4 C4             2.1193     0.7428    -0.0142 C.ar    
   5 C5             3.5050     0.9175    -0.0269 C.ar    
   6 C6             4.0296     2.1957    -0.0254 C.ar    
   7 C7             3.1821     3.3038    -0.0109 C.ar    
   8 C8             1.8264     3.1444     0.0016 C.ar    
   9 C9             1.2733     1.8657    -0.0001 C.ar    
  10 N10            5.4163     2.3795    -0.0381 N.pl3   
  11 C11           -1.2232     2.2254     0.0202 C.3     
  12 C12           -1.8627     2.2146    -1.3707 C.3     
  13 C13           -3.1550     3.0363    -1.3363 C.3     
  14 C14           -4.0851     2.4601    -0.2643 C.3     
  15 C15           -3.3597     2.4614     1.0838 C.3     
  16 O16           -2.1517     1.7058     0.9740 O.3     
  17 C17            1.6767    -1.8454    -0.0234 C.2     
  18 N18            0.8378    -2.9276    -0.0212 N.pl3   
  19 C19            1.6325    -4.0608    -0.0344 C.ar    
  20 C20            2.9632    -3.6061    -0.0444 C.ar    
  21 N21            2.9242    -2.2512    -0.0427 N.2     
  22 C22            4.0084    -4.5349    -0.0582 C.ar    
  23 C23            3.7232    -5.8874    -0.0618 C.ar    
  24 C24            2.4015    -6.3287    -0.0523 C.ar    
  25 C25            1.3634    -5.4218    -0.0389 C.ar    
  26 O26            6.2890    -8.9259    -1.1395 O.3     
  27 C27            5.4196    -9.1771    -0.0321 C.3     
  28 C28            4.2472    -8.1936    -0.0772 C.3     
  29 N29            4.7674    -6.8186    -0.0756 N.3     
  30 C30            5.6562    -6.5965    -1.2254 C.3     
  31 C31            6.8145    -7.5961    -1.1687 C.3     
  32 C32            4.8883   -10.6095    -0.1144 C.3     
  33 H33            4.1615     0.0599    -0.0374 H       
  34 H34            3.6031     4.2984    -0.0092 H       
  35 H35            1.1817     4.0108     0.0127 H       
  36 H36            6.0074     1.6105    -0.0479 H       
  37 H37            5.7868     3.2760    -0.0371 H       
  38 H38           -0.9579     3.2476     0.2904 H       
  39 H39           -1.1724     2.6514    -2.0924 H       
  40 H40           -2.0911     1.1885    -1.6586 H       
  41 H41           -2.9212     4.0737    -1.0969 H       
  42 H42           -3.6446     2.9867    -2.3089 H       
  43 H43           -4.9842     3.0724    -0.1948 H       
  44 H44           -4.3584     1.4389    -0.5299 H       
  45 H45           -3.1226     3.4867     1.3680 H       
  46 H46           -4.0013     2.0130     1.8423 H       
  47 H47           -0.1319    -2.9044    -0.0119 H       
  48 H48            5.0342    -4.1969    -0.0663 H       
  49 H49            2.1892    -7.3876    -0.0556 H       
  50 H50            0.3413    -5.7705    -0.0313 H       
  51 H51            5.9696    -9.0452     0.8997 H       
  52 H52            3.6658    -8.3617    -0.9838 H       
  53 H53            3.6124    -8.3436     0.7961 H       
  54 H54            5.0973    -6.7391    -2.1503 H       
  55 H55            6.0500    -5.5807    -1.1902 H       
  56 H56            7.4051    -7.4182    -0.2700 H       
  57 H57            7.4448    -7.4731    -2.0494 H       
  58 H58            5.7237   -11.3091    -0.0861 H       
  59 H59            4.2258   -10.8004     0.7298 H       
  60 H60            4.3369   -10.7396    -1.0456 H       
@<TRIPOS>BOND
   1    1    2 1
   2    1    9 1
   3    1   11 1
   4    2    3 2
   5    3    4 1
   6    3   17 1
   7    4    5 ar
   8    4    9 ar
   9    5    6 ar
  10    5   33 1
  11    6    7 ar
  12    6   10 1
  13    7    8 ar
  14    7   34 1
  15    8    9 ar
  16    8   35 1
  17   10   36 1
  18   10   37 1
  19   11   12 1
  20   11   16 1
  21   11   38 1
  22   12   13 1
  23   12   39 1
  24   12   40 1
  25   13   14 1
  26   13   41 1
  27   13   42 1
  28   14   15 1
  29   14   43 1
  30   14   44 1
  31   15   16 1
  32   15   45 1
  33   15   46 1
  34   17   18 1
  35   17   21 2
  36   18   19 1
  37   18   47 1
  38   19   20 ar
  39   19   25 ar
  40   20   21 1
  41   20   22 ar
  42   22   23 ar
  43   22   48 1
  44   23   24 ar
  45   23   29 1
  46   24   25 ar
  47   24   49 1
  48   25   50 1
  49   26   27 1
  50   26   31 1
  51   27   28 1
  52   27   32 1
  53   27   51 1
  54   28   29 1
  55   28   52 1
  56   28   53 1
  57   29   30 1
  58   30   31 1
  59   30   54 1
  60   30   55 1
  61   31   56 1
  62   31   57 1
  63   32   58 1
  64   32   59 1
  65   32   60 1

#	End of record

