#	Name: ASD05313197
#	Creating user name:	WinNT
#	Creation time:	15. 06. 2019 20:58

#	Modifying user name:	WinNT
#	Modification time:	15. 06. 2019 20:58

#	Program:	/corina/corina34_cracker 3.40 0067  02.08.2006

@<TRIPOS>MOLECULE
ASD05313197
  37   40    0    0    0
SMALL
NO_CHARGES


@<TRIPOS>ATOM
   1 C1            -0.0621     0.8451     0.9904 C.2     
   2 C2             0.1155    -0.5968     0.5783 C.3     
   3 N3             0.9470     1.7508     1.0133 N.pl3   
   4 N4             1.4612    -0.7124    -0.0147 N.am    
   5 C5             2.5769    -0.0325     0.6609 C.3     
   6 C6             2.3338     1.4813     0.6376 C.3     
   7 N7            -0.8858     2.6810     1.6521 N.2     
   8 N8            -1.1454     1.4481     1.3809 N.2     
   9 C9             0.3945     2.9202     1.4436 C.2     
  10 S10            2.7627     4.5403     1.3785 S.3     
  11 N11            2.6454     6.1712     1.8419 N.2     
  12 C12            1.3945     6.3607     2.1573 C.2     
  13 N13            0.5765     5.3445     2.0568 N.2     
  14 C14            1.0933     4.2034     1.6406 C.2     
  15 C15            1.6628    -1.4212    -1.1432 C.2     
  16 O16            2.7577    -1.4252    -1.6710 O.2     
  17 C17            0.5520    -2.1939    -1.7391 C.ar    
  18 C18            0.3184    -2.1385    -3.1141 C.ar    
  19 C19           -0.7202    -2.8629    -3.6641 C.ar    
  20 C20           -1.5288    -3.6429    -2.8543 C.ar    
  21 C21           -1.3016    -3.7014    -1.4912 C.ar    
  22 C22           -0.2635    -2.9863    -0.9300 C.ar    
  23 C23            1.1973    -1.2896    -3.9960 C.3     
  24 Cl24          -1.0136    -2.7955    -5.3738 Cl      
  25 H25            0.0364    -1.2455     1.4507 H       
  26 H26           -0.6403    -0.8689    -0.1584 H       
  27 H27            2.6404    -0.3753     1.6936 H       
  28 H28            3.5088    -0.2597     0.1431 H       
  29 H29            2.5205     1.8649    -0.3655 H       
  30 H30            3.0043     1.9687     1.3455 H       
  31 H31            1.0445     7.3263     2.4913 H       
  32 H32           -2.3403    -4.2077    -3.2889 H       
  33 H33           -1.9360    -4.3114    -0.8651 H       
  34 H34           -0.0851    -3.0363     0.1339 H       
  35 H35            2.0876    -1.8542    -4.2731 H       
  36 H36            0.6488    -1.0115    -4.8960 H       
  37 H37            1.4914    -0.3890    -3.4570 H       
@<TRIPOS>BOND
   1    1    2 1
   2    1    3 1
   3    1    8 2
   4    2    4 1
   5    2   25 1
   6    2   26 1
   7    3    6 1
   8    3    9 1
   9    4    5 1
  10    4   15 am
  11    5    6 1
  12    5   27 1
  13    5   28 1
  14    6   29 1
  15    6   30 1
  16    7    8 1
  17    7    9 2
  18    9   14 1
  19   10   11 1
  20   10   14 1
  21   11   12 2
  22   12   13 1
  23   12   31 1
  24   13   14 2
  25   15   16 2
  26   15   17 1
  27   17   18 ar
  28   17   22 ar
  29   18   19 ar
  30   18   23 1
  31   19   20 ar
  32   19   24 1
  33   20   21 ar
  34   20   32 1
  35   21   22 ar
  36   21   33 1
  37   22   34 1
  38   23   35 1
  39   23   36 1
  40   23   37 1

#	End of record

