#	Name: ASD07930817
#	Creating user name:	WinNT
#	Creation time:	15. 06. 2019 21:13

#	Modifying user name:	WinNT
#	Modification time:	15. 06. 2019 21:13

#	Program:	/corina/corina34_cracker 3.40 0067  02.08.2006

@<TRIPOS>MOLECULE
ASD07930817
  48   50    0    0    0
SMALL
NO_CHARGES


@<TRIPOS>ATOM
   1 C1            -0.0162     1.3436     0.0094 C.2     
   2 N2             0.0021    -0.0041     0.0020 N.am    
   3 O3             1.0275     1.9652     0.0028 O.2     
   4 O4            -1.1910     2.0007     0.0186 O.3     
   5 S5             2.6993     0.2579    -0.0223 S.3     
   6 C6             1.2080    -0.6786    -0.0131 C.2     
   7 N7             1.1952    -1.9537    -0.0194 N.2     
   8 C8             2.2794    -2.9058    -0.0526 C.3     
   9 C9             3.6761    -2.2802    -0.1730 C.3     
  10 C10            3.8237    -1.0036     0.6310 C.3     
  11 O11            3.1040    -3.1227    -2.3033 O.3     
  12 C12            2.1751    -3.7033    -1.3793 C.3     
  13 C13            3.7791    -2.0109    -1.6879 C.3     
  14 C14            5.2451    -1.9700    -2.1236 C.3     
  15 C15            2.1992    -3.8353     1.1308 C.ar    
  16 C16            3.1389    -4.8405     1.2869 C.ar    
  17 C17            3.0645    -5.6940     2.3743 C.ar    
  18 C18            2.0525    -5.5424     3.3034 C.ar    
  19 C19            1.1143    -4.5383     3.1469 C.ar    
  20 C20            1.1914    -3.6814     2.0634 C.ar    
  21 F21            4.1276    -4.9884     0.3781 F       
  22 Br22          -0.2702    -4.3320     4.4182 Br      
  23 C23           -1.1347     3.4516     0.0262 C.3     
  24 C24           -0.4001     3.9400    -1.2239 C.3     
  25 C25           -2.5563     4.0171     0.0360 C.3     
  26 C26           -0.3883     3.9265     1.2745 C.3     
  27 H27           -0.8313    -0.5005     0.0073 H       
  28 H28            4.4332    -3.0014     0.1347 H       
  29 H29            4.8510    -0.6463     0.5598 H       
  30 H30            3.5800    -1.2017     1.6748 H       
  31 H31            2.4312    -4.7482    -1.2042 H       
  32 H32            1.1628    -3.6301    -1.7767 H       
  33 H33            3.2801    -1.0757    -1.9422 H       
  34 H34            5.7174    -2.9266    -1.9002 H       
  35 H35            5.3005    -1.7790    -3.1954 H       
  36 H36            5.7620    -1.1752    -1.5858 H       
  37 H37            3.7968    -6.4783     2.4964 H       
  38 H38            1.9941    -6.2083     4.1516 H       
  39 H39            0.4613    -2.8945     1.9444 H       
  40 H40           -0.9319     3.6017    -2.1132 H       
  41 H41           -0.3579     5.0292    -1.2182 H       
  42 H42            0.6126     3.5372    -1.2309 H       
  43 H43           -3.0796     3.6691     0.9266 H       
  44 H44           -2.5140     5.1063     0.0417 H       
  45 H45           -3.0881     3.6788    -0.8533 H       
  46 H46            0.6245     3.5236     1.2675 H       
  47 H47           -0.3460     5.0156     1.2802 H       
  48 H48           -0.9116     3.5785     2.1651 H       
@<TRIPOS>BOND
   1    1    2 am
   2    1    3 2
   3    1    4 1
   4    2    6 1
   5    2   27 1
   6    4   23 1
   7    5    6 1
   8    5   10 1
   9    6    7 2
  10    7    8 1
  11    8   12 1
  12    8   15 1
  13    8    9 1
  14    9   10 1
  15    9   13 1
  16    9   28 1
  17   10   29 1
  18   10   30 1
  19   11   12 1
  20   11   13 1
  21   12   31 1
  22   12   32 1
  23   13   14 1
  24   13   33 1
  25   14   34 1
  26   14   35 1
  27   14   36 1
  28   15   16 ar
  29   15   20 ar
  30   16   17 ar
  31   16   21 1
  32   17   18 ar
  33   17   37 1
  34   18   19 ar
  35   18   38 1
  36   19   20 ar
  37   19   22 1
  38   20   39 1
  39   23   24 1
  40   23   26 1
  41   23   25 1
  42   24   40 1
  43   24   41 1
  44   24   42 1
  45   25   43 1
  46   25   44 1
  47   25   45 1
  48   26   46 1
  49   26   47 1
  50   26   48 1

#	End of record

