#	Name: ASD01209125
#	Creating user name:	WinNT
#	Creation time:	15. 06. 2019 19:11

#	Modifying user name:	WinNT
#	Modification time:	15. 06. 2019 19:11

#	Program:	/corina/corina34_cracker 3.40 0067  02.08.2006

@<TRIPOS>MOLECULE
ASD01209125
  75   78    0    0    0
SMALL
NO_CHARGES


@<TRIPOS>ATOM
   1 C1             1.4600     3.6166     1.1336 C.ar    
   2 C2             1.8391     2.2837     1.1981 C.ar    
   3 C3             0.8953     1.2807     1.0278 C.ar    
   4 C4            -0.4300     1.6070     0.7921 C.ar    
   5 C5            -0.8157     2.9466     0.7264 C.ar    
   6 C6             0.1354     3.9517     0.9038 C.ar    
   7 O7             2.3881     4.5950     1.3015 O.3     
   8 O8             1.2719    -0.0234     1.0920 O.3     
   9 C9             1.2423    -0.7531    -0.0539 C.ar    
  10 C10            1.5499    -2.1059    -0.0245 C.ar    
  11 C11           -2.2289     3.2995     0.4744 C.2     
  12 N12           -2.5993     4.5938     0.4113 N.am    
  13 O13           -3.0569     2.4223     0.3241 O.2     
  14 C14           -3.9271     4.9254     0.1746 C.2     
  15 S15           -5.1922     3.7983    -0.0539 S.3     
  16 C16           -6.3439     5.1160    -0.2564 C.2     
  17 C17           -5.6805     6.2676    -0.1354 C.2     
  18 N18           -4.3887     6.1346     0.1002 N.2     
  19 P19           -6.9263     8.1489     1.3925 P.3     
  20 O20           -5.7886     8.1389     2.3391 O.2     
  21 C21            1.5190    -2.8454    -1.1909 C.ar    
  22 C22            1.1821    -2.2388    -2.3868 C.ar    
  23 C23            0.8751    -0.8910    -2.4188 C.ar    
  24 C24            0.8989    -0.1481    -1.2544 C.ar    
  25 S25            1.1443    -3.1849    -3.8728 S.o2    
  26 O26            1.3869    -2.2336    -4.9002 O.2     
  27 O27            2.0521    -4.2513    -3.6325 O.2     
  28 C28           -0.5570    -3.8070    -3.9702 C.3     
  29 C29           -6.3531     7.6111    -0.2523 C.3     
  30 C30            3.3358     4.7454     0.3423 C.ar    
  31 N31            3.3834     3.8958    -0.6704 N.ar    
  32 C32            4.2885     4.0057    -1.6243 C.ar    
  33 C33            5.2251     5.0196    -1.5978 C.ar    
  34 C34            5.2088     5.9321    -0.5516 C.ar    
  35 C35            4.2434     5.7936     0.4301 C.ar    
  36 O36           -8.0699     7.1444     1.9173 O.3     
  37 C37           -8.6142     7.2061     3.2371 C.3     
  38 C38          -10.1372     7.3275     3.1554 C.3     
  39 C39           -8.2443     5.9334     4.0014 C.3     
  40 O40           -7.5267     9.6393     1.2908 O.3     
  41 C41           -7.9117    10.4031     2.4355 C.3     
  42 C42           -7.0008    11.6259     2.5627 C.3     
  43 C43           -9.3626    10.8622     2.2778 C.3     
  44 H44            2.8718     2.0259     1.3811 H       
  45 H45           -1.1638     0.8258     0.6590 H       
  46 H46           -0.1589     4.9896     0.8537 H       
  47 H47            1.8135    -2.5801     0.9093 H       
  48 H48           -1.9386     5.2938     0.5312 H       
  49 H49           -7.4019     5.0103    -0.4459 H       
  50 H50            1.7587    -3.8982    -1.1686 H       
  51 H51            0.6126    -0.4195    -3.3543 H       
  52 H52            0.6591     0.9046    -1.2799 H       
  53 H53           -1.2498    -2.9662    -4.0053 H       
  54 H54           -0.6721    -4.4106    -4.8704 H       
  55 H55           -0.7712    -4.4179    -3.0933 H       
  56 H56           -5.6440     8.3393    -0.6460 H       
  57 H57           -7.2059     7.5331    -0.9267 H       
  58 H58            4.2968     3.2933    -2.4360 H       
  59 H59            5.9628     5.1018    -2.3823 H       
  60 H60            5.9304     6.7345    -0.5073 H       
  61 H61            4.2015     6.4859     1.2580 H       
  62 H62           -8.2080     8.0734     3.7575 H       
  63 H63          -10.5518     6.4159     2.7252 H       
  64 H64          -10.5441     7.4749     4.1558 H       
  65 H65          -10.4007     8.1783     2.5271 H       
  66 H66           -8.6506     5.0660     3.4810 H       
  67 H67           -7.1593     5.8469     4.0595 H       
  68 H68           -8.6595     5.9804     5.0081 H       
  69 H69           -7.8206     9.7876     3.3304 H       
  70 H70           -7.0919    12.2414     1.6678 H       
  71 H71           -7.2945    12.2085     3.4359 H       
  72 H72           -5.9672    11.2988     2.6750 H       
  73 H73           -9.4715    11.4070     1.3400 H       
  74 H74          -10.0201     9.9929     2.2714 H       
  75 H75           -9.6300    11.5139     3.1097 H       
@<TRIPOS>BOND
   1    1    2 ar
   2    1    7 1
   3    1    6 ar
   4    2    3 ar
   5    2   44 1
   6    3    4 ar
   7    3    8 1
   8    4    5 ar
   9    4   45 1
  10    5    6 ar
  11    5   11 1
  12    6   46 1
  13    7   30 1
  14    8    9 1
  15    9   10 ar
  16    9   24 ar
  17   10   21 ar
  18   10   47 1
  19   11   12 am
  20   11   13 2
  21   12   14 1
  22   12   48 1
  23   14   15 1
  24   14   18 2
  25   15   16 1
  26   16   17 2
  27   16   49 1
  28   17   18 1
  29   17   29 1
  30   19   20 2
  31   19   36 1
  32   19   40 1
  33   19   29 1
  34   21   22 ar
  35   21   50 1
  36   22   23 ar
  37   22   25 1
  38   23   24 ar
  39   23   51 1
  40   24   52 1
  41   25   26 2
  42   25   27 2
  43   25   28 1
  44   28   53 1
  45   28   54 1
  46   28   55 1
  47   29   56 1
  48   29   57 1
  49   30   31 ar
  50   30   35 ar
  51   31   32 ar
  52   32   33 ar
  53   32   58 1
  54   33   34 ar
  55   33   59 1
  56   34   35 ar
  57   34   60 1
  58   35   61 1
  59   36   37 1
  60   37   38 1
  61   37   39 1
  62   37   62 1
  63   38   63 1
  64   38   64 1
  65   38   65 1
  66   39   66 1
  67   39   67 1
  68   39   68 1
  69   40   41 1
  70   41   42 1
  71   41   43 1
  72   41   69 1
  73   42   70 1
  74   42   71 1
  75   42   72 1
  76   43   73 1
  77   43   74 1
  78   43   75 1

#	End of record

