#	Name: ASD00170712
#	Creating user name:	WinNT
#	Creation time:	15. 06. 2019 18:32

#	Modifying user name:	WinNT
#	Modification time:	15. 06. 2019 18:32

#	Program:	/corina/corina34_cracker 3.40 0067  02.08.2006

@<TRIPOS>MOLECULE
ASD00170712
  38   40    0    0    0
SMALL
NO_CHARGES


@<TRIPOS>ATOM
   1 C1            -0.0184     1.5028     0.0103 C.3     
   2 C2             0.0021    -0.0041     0.0020 C.ar    
   3 C3             0.0229    -0.7016     1.1953 C.ar    
   4 C4             0.0417    -2.0838     1.1877 C.ar    
   5 C5             0.0392    -2.7685    -0.0132 C.ar    
   6 C6             0.0175    -2.0710    -1.2065 C.ar    
   7 C7            -0.0057    -0.6888    -1.1988 C.ar    
   8 C8             2.1529     2.0838     1.1080 C.2     
   9 C9             1.3954     2.0244    -0.0004 C.2     
  10 C10            2.0117     2.4773    -1.1496 C.2     
  11 C11            3.2765     2.9081    -0.9796 C.2     
  12 S12            3.7341     2.7427     0.7104 S.3     
  13 C13            4.1465     3.4384    -2.0494 C.ar    
  14 C14            5.4454     3.8567    -1.7528 C.ar    
  15 C15            6.2540     4.3506    -2.7544 C.ar    
  16 C16            5.7786     4.4324    -4.0562 C.ar    
  17 C17            4.4878     4.0181    -4.3555 C.ar    
  18 C18            3.6743     3.5175    -3.3612 C.ar    
  19 O19            6.5793     4.9200    -5.0406 O.3     
  20 C20            6.0272     4.9765    -6.3574 C.3     
  21 N21            1.7451     1.6887     2.3808 N.pl3   
  22 H22           -0.5455     1.8639    -0.8728 H       
  23 H23           -0.5286     1.8543     0.9071 H       
  24 H24            0.0248    -0.1667     2.1335 H       
  25 H25            0.0586    -2.6287     2.1200 H       
  26 H26            0.0546    -3.8483    -0.0191 H       
  27 H27            0.0159    -2.6059    -2.1447 H       
  28 H28           -0.0264    -0.1439    -2.1310 H       
  29 H29            1.5182     2.4853    -2.1103 H       
  30 H30            5.8158     3.7938    -0.7403 H       
  31 H31            7.2586     4.6747    -2.5258 H       
  32 H32            4.1218     4.0841    -5.3695 H       
  33 H33            2.6718     3.1912    -3.5957 H       
  34 H34            5.7475     3.9728    -6.6776 H       
  35 H35            5.1445     5.6160    -6.3542 H       
  36 H36            6.7684     5.3839    -7.0450 H       
  37 H37            0.8510     1.3381     2.5166 H       
  38 H38            2.3555     1.7644     3.1309 H       
@<TRIPOS>BOND
   1    1    2 1
   2    1    9 1
   3    1   22 1
   4    1   23 1
   5    2    3 ar
   6    2    7 ar
   7    3    4 ar
   8    3   24 1
   9    4    5 ar
  10    4   25 1
  11    5    6 ar
  12    5   26 1
  13    6    7 ar
  14    6   27 1
  15    7   28 1
  16    8    9 2
  17    8   12 1
  18    8   21 1
  19    9   10 1
  20   10   11 2
  21   10   29 1
  22   11   12 1
  23   11   13 1
  24   13   14 ar
  25   13   18 ar
  26   14   15 ar
  27   14   30 1
  28   15   16 ar
  29   15   31 1
  30   16   17 ar
  31   16   19 1
  32   17   18 ar
  33   17   32 1
  34   18   33 1
  35   19   20 1
  36   20   34 1
  37   20   35 1
  38   20   36 1
  39   21   37 1
  40   21   38 1

#	End of record

