#	Name: ASD01350014
#	Creating user name:	WinNT
#	Creation time:	15. 06. 2019 19:16

#	Modifying user name:	WinNT
#	Modification time:	15. 06. 2019 19:16

#	Program:	/corina/corina34_cracker 3.40 0067  02.08.2006

@<TRIPOS>MOLECULE
ASD01350014
  57   60    0    0    0
SMALL
NO_CHARGES


@<TRIPOS>ATOM
   1 C1            -0.0117     1.4738    -0.0879 C.2     
   2 C2             0.0187    -0.0093    -0.1231 C.ar    
   3 C3            -0.7533    -0.6176     0.9019 C.ar    
   4 C4            -1.6767     0.2319     1.7534 C.3     
   5 C5            -0.8462     1.1205     2.7045 C.3     
   6 C6            -0.9718     2.5885     2.2315 C.3     
   7 C7            -1.8529     2.6749     1.0086 C.ar    
   8 C8            -1.3504     2.1163    -0.1517 C.ar    
   9 C9             1.1106     2.1971     0.0024 C.2     
  10 C10           -3.0898     3.2704     1.0250 C.ar    
  11 C11           -3.8335     3.3143    -0.1452 C.ar    
  12 C12           -3.3354     2.7666    -1.3141 C.ar    
  13 C13           -2.0893     2.1614    -1.3265 C.ar    
  14 C14            0.7218    -0.7732    -1.0235 C.ar    
  15 C15            0.7390    -2.1505    -0.8788 C.ar    
  16 C16            0.0563    -2.7428     0.1689 C.ar    
  17 C17           -0.6853    -1.9806     1.0550 C.ar    
  18 C18            1.0494     3.6992    -0.1018 C.3     
  19 N19            1.9576     4.1538    -1.1632 N.3     
  20 C20            1.8362     5.6023    -1.3754 C.3     
  21 C21            2.7346     6.3405    -0.3810 C.3     
  22 C22            2.2652     5.9464    -2.8031 C.3     
  23 C23            1.3058     5.3184    -3.7811 C.ar    
  24 C24            0.1868     6.0158    -4.1962 C.ar    
  25 C25           -0.6932     5.4397    -5.0932 C.ar    
  26 C26           -0.4540     4.1665    -5.5754 C.ar    
  27 C27            0.6656     3.4695    -5.1610 C.ar    
  28 C28            1.5479     4.0472    -4.2673 C.ar    
  29 H29           -2.2857     0.8639     1.1070 H       
  30 H30           -2.3272    -0.4170     2.3399 H       
  31 H31           -1.2284     1.0280     3.7211 H       
  32 H32            0.1992     0.8132     2.6751 H       
  33 H33           -1.4054     3.1889     3.0312 H       
  34 H34            0.0182     2.9755     1.9905 H       
  35 H35            2.0602     1.7043     0.1501 H       
  36 H36           -3.4788     3.6987     1.9369 H       
  37 H37           -4.8081     3.7797    -0.1440 H       
  38 H38           -3.9228     2.8098    -2.2193 H       
  39 H39           -1.6966     1.7332    -2.2369 H       
  40 H40            1.2557    -0.3038    -1.8366 H       
  41 H41            1.2844    -2.7613    -1.5830 H       
  42 H42            0.1023    -3.8143     0.2967 H       
  43 H43           -1.2114    -2.4586     1.8681 H       
  44 H44            0.0307     4.0058    -0.3394 H       
  45 H45            1.3500     4.1419     0.8478 H       
  46 H46            2.9115     3.8972    -0.9574 H       
  47 H47            0.8003     5.9061    -1.2241 H       
  48 H48            2.6445     7.4153    -0.5384 H       
  49 H49            2.4289     6.0954     0.6362 H       
  50 H50            3.7704     6.0367    -0.5323 H       
  51 H51            2.2601     7.0286    -2.9332 H       
  52 H52            3.2698     5.5635    -2.9829 H       
  53 H53           -0.0002     7.0105    -3.8194 H       
  54 H54           -1.5679     5.9843    -5.4169 H       
  55 H55           -1.1419     3.7161    -6.2757 H       
  56 H56            0.8523     2.4746    -5.5375 H       
  57 H57            2.4226     3.5027    -3.9435 H       
@<TRIPOS>BOND
   1    1    2 1
   2    1    9 2
   3    1    8 1
   4    2    3 ar
   5    2   14 ar
   6    3    4 1
   7    3   17 ar
   8    4    5 1
   9    4   29 1
  10    4   30 1
  11    5    6 1
  12    5   31 1
  13    5   32 1
  14    6    7 1
  15    6   33 1
  16    6   34 1
  17    7    8 ar
  18    7   10 ar
  19    8   13 ar
  20    9   18 1
  21    9   35 1
  22   10   11 ar
  23   10   36 1
  24   11   12 ar
  25   11   37 1
  26   12   13 ar
  27   12   38 1
  28   13   39 1
  29   14   15 ar
  30   14   40 1
  31   15   16 ar
  32   15   41 1
  33   16   17 ar
  34   16   42 1
  35   17   43 1
  36   18   19 1
  37   18   44 1
  38   18   45 1
  39   19   20 1
  40   19   46 1
  41   20   21 1
  42   20   22 1
  43   20   47 1
  44   21   48 1
  45   21   49 1
  46   21   50 1
  47   22   23 1
  48   22   51 1
  49   22   52 1
  50   23   24 ar
  51   23   28 ar
  52   24   25 ar
  53   24   53 1
  54   25   26 ar
  55   25   54 1
  56   26   27 ar
  57   26   55 1
  58   27   28 ar
  59   27   56 1
  60   28   57 1

#	End of record

