#	Name: ASD09850001
#	Creating user name:	WinNT
#	Creation time:	15. 06. 2019 21:24

#	Modifying user name:	WinNT
#	Modification time:	15. 06. 2019 21:24

#	Program:	/corina/corina34_cracker 3.40 0067  02.08.2006

@<TRIPOS>MOLECULE
ASD09850001
  61   65    0    0    0
SMALL
NO_CHARGES


@<TRIPOS>ATOM
   1 C1             0.0255     1.9960    -0.2997 C.ar    
   2 C2             0.1123     0.6126    -0.2677 C.ar    
   3 C3            -1.0336    -0.1512    -0.2074 C.ar    
   4 C4            -2.2835     0.4709    -0.1780 C.ar    
   5 C5            -2.3652     1.8647    -0.2100 C.ar    
   6 C6            -1.2128     2.6189    -0.2655 C.ar    
   7 F7             1.1517     2.7399    -0.3589 F       
   8 C8            -3.5150    -0.3425    -0.1139 C.2     
   9 O9            -3.4415    -1.5556    -0.0865 O.2     
  10 N10           -4.7201     0.2604    -0.0856 N.am    
  11 C11           -5.9414    -0.5463    -0.0220 C.3     
  12 C12           -7.1432     0.3627    -0.0014 C.2     
  13 O13           -6.9950     1.5606    -0.0363 O.2     
  14 C14           -8.5302    -0.2234     0.0627 C.3     
  15 O15           -9.5089     0.8492     0.0713 O.3     
  16 C16          -10.8073     0.4922     0.1265 C.2     
  17 O17          -11.1131    -0.6831     0.1665 O.2     
  18 C18          -11.8562     1.5273     0.1385 C.ar    
  19 C19          -12.3129     2.0499     1.3409 C.ar    
  20 C20          -12.4227     2.0194    -1.1151 C.ar    
  21 C21          -13.4295     3.0155    -1.0701 C.ar    
  22 C22          -13.8601     3.5073     0.1678 C.ar    
  23 C23          -13.3094     3.0343     1.3575 C.ar    
  24 C24          -11.9913     1.5282    -2.3525 C.ar    
  25 C25          -12.5438     2.0127    -3.5011 C.ar    
  26 C26          -13.5334     2.9921    -3.4613 C.ar    
  27 C27          -13.9775     3.4919    -2.2755 C.ar    
  28 C28          -13.6245     3.4226     2.7473 C.2     
  29 C29          -12.7474     2.6155     3.6721 C.3     
  30 C30          -11.8973     1.7251     2.7567 C.3     
  31 C31          -14.5342     4.3360     3.1228 C.2     
  32 C32          -14.8510     4.5168     4.5507 C.ar    
  33 C33          -15.1049     5.7941     5.0573 C.ar    
  34 C34          -14.9046     3.4110     5.4035 C.ar    
  35 C35          -15.2017     3.5879     6.7386 C.ar    
  36 C36          -15.4463     4.8565     7.2343 C.ar    
  37 C37          -15.4006     5.9556     6.3947 C.ar    
  38 H38            1.0794     0.1325    -0.2905 H       
  39 H39           -0.9649    -1.2287    -0.1832 H       
  40 H40           -3.3294     2.3507    -0.1878 H       
  41 H41           -1.2748     3.6969    -0.2899 H       
  42 H42           -4.7788     1.2284    -0.1074 H       
  43 H43           -5.9929    -1.1970    -0.8949 H       
  44 H44           -5.9292    -1.1531     0.8834 H       
  45 H45           -8.6962    -0.8598    -0.8064 H       
  46 H46           -8.6325    -0.8159     0.9718 H       
  47 H47          -14.6275     4.2665     0.2012 H       
  48 H48          -11.2242     0.7693    -2.3974 H       
  49 H49          -12.2093     1.6320    -4.4548 H       
  50 H50          -13.9549     3.3602    -4.3850 H       
  51 H51          -14.7456     4.2509    -2.2600 H       
  52 H52          -12.1085     3.2762     4.2581 H       
  53 H53          -13.3599     1.9999     4.3309 H       
  54 H54          -12.0910     0.6743     2.9720 H       
  55 H55          -10.8394     1.9473     2.8961 H       
  56 H56          -15.0338     4.9382     2.3784 H       
  57 H57          -15.0692     6.6528     4.4033 H       
  58 H58          -14.7142     2.4203     5.0179 H       
  59 H59          -15.2438     2.7342     7.3988 H       
  60 H60          -15.6788     4.9889     8.2807 H       
  61 H61          -15.5923     6.9427     6.7887 H       
@<TRIPOS>BOND
   1    1    2 ar
   2    1    7 1
   3    1    6 ar
   4    2    3 ar
   5    2   38 1
   6    3    4 ar
   7    3   39 1
   8    4    5 ar
   9    4    8 1
  10    5    6 ar
  11    5   40 1
  12    6   41 1
  13    8    9 2
  14    8   10 am
  15   10   11 1
  16   10   42 1
  17   11   12 1
  18   11   43 1
  19   11   44 1
  20   12   13 2
  21   12   14 1
  22   14   15 1
  23   14   45 1
  24   14   46 1
  25   15   16 1
  26   16   17 2
  27   16   18 1
  28   18   19 ar
  29   18   20 ar
  30   19   23 ar
  31   19   30 1
  32   20   21 ar
  33   20   24 ar
  34   21   22 ar
  35   21   27 ar
  36   22   23 ar
  37   22   47 1
  38   23   28 1
  39   24   25 ar
  40   24   48 1
  41   25   26 ar
  42   25   49 1
  43   26   27 ar
  44   26   50 1
  45   27   51 1
  46   28   29 1
  47   28   31 2
  48   29   30 1
  49   29   52 1
  50   29   53 1
  51   30   54 1
  52   30   55 1
  53   31   32 1
  54   31   56 1
  55   32   33 ar
  56   32   34 ar
  57   33   37 ar
  58   33   57 1
  59   34   35 ar
  60   34   58 1
  61   35   36 ar
  62   35   59 1
  63   36   37 ar
  64   36   60 1
  65   37   61 1

#	End of record

