#	Name: ASD03330851
#	Creating user name:	WinNT
#	Creation time:	15. 06. 2019 20:38

#	Modifying user name:	WinNT
#	Modification time:	15. 06. 2019 20:38

#	Program:	/corina/corina34_cracker 3.40 0067  02.08.2006

@<TRIPOS>MOLECULE
ASD03330851
  61   63    0    0    0
SMALL
NO_CHARGES


@<TRIPOS>ATOM
   1 N1             0.1369     0.9673    -0.0497 N.pl3   
   2 C2             0.0168    -0.3683     0.1772 C.2     
   3 C3             1.1372    -1.2963     0.5681 C.3     
   4 N4             1.9101    -0.6855     1.6608 N.3     
   5 C5             2.9876     0.1585     1.1409 C.3     
   6 C6             2.5720     0.8324    -0.1637 C.3     
   7 C7             1.3701     1.7476     0.0854 C.3     
   8 C8            -1.0944     1.4330    -0.4092 C.2     
   9 N9            -1.9434     0.4321    -0.3879 N.2     
  10 C10           -1.2894    -0.6939    -0.0268 C.2     
  11 C11           -1.8833    -2.0345     0.1193 C.2     
  12 O12           -1.1874    -2.9751     0.4514 O.2     
  13 N13           -3.1978    -2.2183    -0.1149 N.am    
  14 C14            2.4375    -1.7117     2.5701 C.3     
  15 C15           -1.4181     2.8313    -0.7635 C.ar    
  16 C16           -2.1931     3.1090    -1.8962 C.ar    
  17 C17           -2.4910     4.4227    -2.2198 C.ar    
  18 C18           -2.0241     5.4544    -1.4273 C.ar    
  19 C19           -1.2575     5.1839    -0.3073 C.ar    
  20 C20           -0.9579     3.8805     0.0320 C.ar    
  21 O21           -2.6505     2.0946    -2.6746 O.3     
  22 C22           -5.0223    -3.6502    -0.8290 C.2     
  23 C23           -3.7883    -3.5511     0.0304 C.3     
  24 C24           -4.1664    -3.7845     1.4945 C.3     
  25 C25           -5.2307    -2.7689     1.9146 C.3     
  26 O26           -5.6548    -2.6514    -1.0993 O.2     
  27 N27           -5.4229    -4.8489    -1.2971 N.am    
  28 C28           -6.6800    -4.9618    -2.0409 C.3     
  29 C29           -4.7205    -5.2012     1.6585 C.3     
  30 C30           -2.9261    -3.6170     2.3745 C.3     
  31 H31            0.7227    -2.2474     0.9023 H       
  32 H32            1.7884    -1.4629    -0.2900 H       
  33 H33            3.2302     0.9241     1.8779 H       
  34 H34            3.8693    -0.4566     0.9612 H       
  35 H35            3.4039     1.4230    -0.5475 H       
  36 H36            2.3020     0.0706    -0.8950 H       
  37 H37            1.3710     2.5571    -0.6445 H       
  38 H38            1.4305     2.1626     1.0915 H       
  39 H39           -3.7528    -1.4682    -0.3797 H       
  40 H40            3.0323    -2.4282     2.0036 H       
  41 H41            3.0625    -1.2392     3.3279 H       
  42 H42            1.6089    -2.2292     3.0536 H       
  43 H43           -3.0884     4.6410    -3.0926 H       
  44 H44           -2.2585     6.4770    -1.6836 H       
  45 H45           -0.8964     5.9960     0.3063 H       
  46 H46           -0.3637     3.6732     0.9097 H       
  47 H47           -3.5162     1.7551    -2.4095 H       
  48 H48           -3.0659    -4.3048    -0.2829 H       
  49 H49           -6.1144    -2.8882     1.2876 H       
  50 H50           -5.5001    -2.9351     2.9576 H       
  51 H51           -4.8360    -1.7596     1.7977 H       
  52 H52           -4.8790    -5.6368    -1.1416 H       
  53 H53           -7.5065    -4.6362    -1.4092 H       
  54 H54           -6.6335    -4.3338    -2.9306 H       
  55 H55           -6.8354    -5.9995    -2.3363 H       
  56 H56           -3.9412    -5.9258     1.4221 H       
  57 H57           -5.0506    -5.3454     2.6873 H       
  58 H58           -5.5643    -5.3418     0.9831 H       
  59 H59           -2.5313    -2.6077     2.2576 H       
  60 H60           -3.1954    -3.7832     3.4175 H       
  61 H61           -2.1678    -4.3405     2.0752 H       
@<TRIPOS>BOND
   1    1    2 1
   2    1    7 1
   3    1    8 1
   4    2    3 1
   5    2   10 2
   6    3    4 1
   7    3   31 1
   8    3   32 1
   9    4    5 1
  10    4   14 1
  11    5    6 1
  12    5   33 1
  13    5   34 1
  14    6    7 1
  15    6   35 1
  16    6   36 1
  17    7   37 1
  18    7   38 1
  19    8    9 2
  20    8   15 1
  21    9   10 1
  22   10   11 1
  23   11   12 2
  24   11   13 am
  25   13   23 1
  26   13   39 1
  27   14   40 1
  28   14   41 1
  29   14   42 1
  30   15   16 ar
  31   15   20 ar
  32   16   17 ar
  33   16   21 1
  34   17   18 ar
  35   17   43 1
  36   18   19 ar
  37   18   44 1
  38   19   20 ar
  39   19   45 1
  40   20   46 1
  41   21   47 1
  42   22   26 2
  43   22   27 am
  44   22   23 1
  45   23   24 1
  46   23   48 1
  47   24   25 1
  48   24   29 1
  49   24   30 1
  50   25   49 1
  51   25   50 1
  52   25   51 1
  53   27   28 1
  54   27   52 1
  55   28   53 1
  56   28   54 1
  57   28   55 1
  58   29   56 1
  59   29   57 1
  60   29   58 1
  61   30   59 1
  62   30   60 1
  63   30   61 1

#	End of record

