#	Name: ASD01200182
#	Creating user name:	WinNT
#	Creation time:	15. 06. 2019 19:08

#	Modifying user name:	WinNT
#	Modification time:	15. 06. 2019 19:08

#	Program:	/corina/corina34_cracker 3.40 0067  02.08.2006

@<TRIPOS>MOLECULE
ASD01200182
  52   55    0    0    0
SMALL
NO_CHARGES


@<TRIPOS>ATOM
   1 C1             0.9780     1.3652    -1.7319 C.2     
   2 C2             0.8674    -0.1344    -1.6311 C.3     
   3 O3             1.5837     1.9869    -0.8849 O.2     
   4 N4             0.4086     2.0149    -2.7664 N.am    
   5 C5             0.4205     3.4083    -2.8059 C.ar    
   6 C6            -0.0658     4.0697    -3.9281 C.ar    
   7 C7            -0.0481     5.4529    -3.9543 C.ar    
   8 C8             0.4573     6.1299    -2.8525 C.ar    
   9 C9             0.9239     5.4085    -1.7716 C.ar    
  10 N10            0.8895     4.0896    -1.7727 N.ar    
  11 S11            1.7368    -0.7063    -0.1453 S.3     
  12 N12            2.5870    -3.2549    -0.4046 N.am    
  13 C13            1.3711    -2.4828    -0.1169 C.3     
  14 C14            0.9337    -2.9028     1.2671 C.2     
  15 C15            1.8104    -3.8057     1.6948 C.2     
  16 C16            2.8342    -4.0289     0.6689 C.2     
  17 O17            3.7690    -4.8000     0.7724 O.2     
  18 C18            1.7596    -4.4968     3.0330 C.3     
  19 C19           -0.2685    -2.3941     2.0200 C.3     
  20 C20            3.3804    -3.1982    -1.6349 C.3     
  21 O21            7.4874     0.6093    -1.0212 O.3     
  22 C22            8.6599    -0.2125    -0.8924 C.3     
  23 C23            8.0868    -1.5459    -0.3566 C.3     
  24 C24            6.6580    -1.4980    -0.8624 C.ar    
  25 C25            6.4033    -0.1849    -1.2379 C.ar    
  26 C26            5.6880    -2.4674    -0.9867 C.ar    
  27 C27            4.4444    -2.1398    -1.4980 C.ar    
  28 C28            4.1815    -0.8381    -1.8822 C.ar    
  29 C29            5.1510     0.1355    -1.7557 C.ar    
  30 H30           -0.1833    -0.4178    -1.5690 H       
  31 H31            1.3156    -0.5919    -2.5131 H       
  32 H32           -0.0095     1.5129    -3.4834 H       
  33 H33           -0.4516     3.5113    -4.7682 H       
  34 H34           -0.4188     5.9938    -4.8124 H       
  35 H35            0.4856     7.2094    -2.8412 H       
  36 H36            1.3183     5.9307    -0.9124 H       
  37 H37            0.5951    -2.7181    -0.8453 H       
  38 H38            1.1750    -5.4128     2.9469 H       
  39 H39            2.7721    -4.7409     3.3546 H       
  40 H40            1.2949    -3.8367     3.7654 H       
  41 H41           -1.1079    -3.0720     1.8651 H       
  42 H42           -0.0355    -2.3414     3.0836 H       
  43 H43           -0.5316    -1.4009     1.6561 H       
  44 H44            3.8508    -4.1659    -1.8088 H       
  45 H45            2.7307    -2.9536    -2.4752 H       
  46 H46            9.1372    -0.3590    -1.8613 H       
  47 H47            9.3593     0.2219    -0.1780 H       
  48 H48            8.6211    -2.3972    -0.7785 H       
  49 H49            8.1137    -1.5719     0.7328 H       
  50 H50            5.8978    -3.4832    -0.6858 H       
  51 H51            3.2123    -0.5820    -2.2840 H       
  52 H52            4.9373     1.1500    -2.0580 H       
@<TRIPOS>BOND
   1    1    2 1
   2    1    3 2
   3    1    4 am
   4    2   11 1
   5    2   30 1
   6    2   31 1
   7    4    5 1
   8    4   32 1
   9    5    6 ar
  10    5   10 ar
  11    6    7 ar
  12    6   33 1
  13    7    8 ar
  14    7   34 1
  15    8    9 ar
  16    8   35 1
  17    9   10 ar
  18    9   36 1
  19   11   13 1
  20   12   13 1
  21   12   16 am
  22   12   20 1
  23   13   14 1
  24   13   37 1
  25   14   15 2
  26   14   19 1
  27   15   16 1
  28   15   18 1
  29   16   17 2
  30   18   38 1
  31   18   39 1
  32   18   40 1
  33   19   41 1
  34   19   42 1
  35   19   43 1
  36   20   27 1
  37   20   44 1
  38   20   45 1
  39   21   22 1
  40   21   25 1
  41   22   23 1
  42   22   46 1
  43   22   47 1
  44   23   24 1
  45   23   48 1
  46   23   49 1
  47   24   25 ar
  48   24   26 ar
  49   25   29 ar
  50   26   27 ar
  51   26   50 1
  52   27   28 ar
  53   28   29 ar
  54   28   51 1
  55   29   52 1

#	End of record

