#	Name: ASD01913065
#	Creating user name:	WinNT
#	Creation time:	15. 06. 2019 20:00

#	Modifying user name:	WinNT
#	Modification time:	15. 06. 2019 20:00

#	Program:	/corina/corina34_cracker 3.40 0067  02.08.2006

@<TRIPOS>MOLECULE
ASD01913065
  32   33    0    0    0
SMALL
NO_CHARGES


@<TRIPOS>ATOM
   1 N1            -0.0160     1.3260     0.0093 N.ar    
   2 C2             0.0021    -0.0041     0.0020 C.ar    
   3 C3            -1.2671    -0.7504     0.0096 C.2     
   4 C4            -2.5781    -0.0073     0.0256 C.3     
   5 O5            -1.2576    -1.9628     0.0030 O.2     
   6 C6            -3.7157    -0.9956     0.0308 C.2     
   7 C7            -5.1070    -0.5161     0.0461 C.ar    
   8 O8            -3.4848    -2.1859     0.0222 O.2     
   9 C9            -6.1655    -1.4302     0.0509 C.ar    
  10 C10            1.2134    -0.6998    -0.0133 C.ar    
  11 C11            2.3987     0.0127    -0.0208 C.ar    
  12 C12            2.3368     1.4036    -0.0127 C.ar    
  13 C13            1.0915     2.0304     0.0025 C.ar    
  14 O14            3.4757     2.1409    -0.0192 O.3     
  15 C15            3.3285     3.5622    -0.0102 C.3     
  16 C16           -7.4663    -0.9730     0.0657 C.ar    
  17 C17           -7.7258     0.3865     0.0754 C.ar    
  18 C18           -6.6837     1.2974     0.0703 C.ar    
  19 C19           -5.3774     0.8559     0.0618 C.ar    
  20 F20            2.6140     3.9642    -1.1438 F       
  21 F21            2.6349     3.9519     1.1406 F       
  22 H22           -2.6326     0.6141     0.9195 H       
  23 H23           -2.6489     0.6237    -0.8603 H       
  24 H24           -5.9646    -2.4913     0.0426 H       
  25 H25            1.2241    -1.7797    -0.0188 H       
  26 H26            3.3502    -0.4980    -0.0323 H       
  27 H27            1.0375     3.1090     0.0088 H       
  28 H28            4.3132     4.0296    -0.0167 H       
  29 H29           -8.2848    -1.6776     0.0694 H       
  30 H30           -8.7468     0.7384     0.0867 H       
  31 H31           -6.8943     2.3566     0.0772 H       
  32 H32           -4.5653     1.5679     0.0578 H       
@<TRIPOS>BOND
   1    1    2 ar
   2    1   13 ar
   3    2    3 1
   4    2   10 ar
   5    3    4 1
   6    3    5 2
   7    4    6 1
   8    4   22 1
   9    4   23 1
  10    6    7 1
  11    6    8 2
  12    7    9 ar
  13    7   19 ar
  14    9   16 ar
  15    9   24 1
  16   10   11 ar
  17   10   25 1
  18   11   12 ar
  19   11   26 1
  20   12   13 ar
  21   12   14 1
  22   13   27 1
  23   14   15 1
  24   15   20 1
  25   15   21 1
  26   15   28 1
  27   16   17 ar
  28   16   29 1
  29   17   18 ar
  30   17   30 1
  31   18   19 ar
  32   18   31 1
  33   19   32 1

#	End of record

