#	Name: ASD01411030
#	Creating user name:	WinNT
#	Creation time:	15. 06. 2019 19:19

#	Modifying user name:	WinNT
#	Modification time:	15. 06. 2019 19:19

#	Program:	/corina/corina34_cracker 3.40 0067  02.08.2006

@<TRIPOS>MOLECULE
ASD01411030
  27   28    0    0    0
SMALL
NO_CHARGES


@<TRIPOS>ATOM
   1 C1            -0.1832     1.7696    -0.8525 C.2     
   2 S2            -0.0936     0.0138    -0.6299 S.3     
   3 C3            -1.8212    -0.1714    -0.2673 C.2     
   4 C4            -2.3519     1.1963    -0.3507 C.2     
   5 N5            -1.4568     2.1238    -0.6471 N.am    
   6 O6            -3.5248     1.4563    -0.1577 O.2     
   7 S7             1.1142     2.8144    -1.2478 S.2     
   8 C8            -2.4959    -1.3122     0.0201 C.2     
   9 C9            -1.8249    -2.6142    -0.1047 C.ar    
  10 C10           -1.8592     3.5280    -0.7595 C.3     
  11 C11           -2.3239    -3.7305     0.5754 C.ar    
  12 C12           -1.6891    -4.9485     0.4535 C.ar    
  13 C13           -0.5610    -5.0690    -0.3389 C.ar    
  14 C14           -0.0599    -3.9689    -1.0154 C.ar    
  15 C15           -0.6871    -2.7450    -0.9087 C.ar    
  16 Br16           1.4827    -4.1474    -2.0944 Br      
  17 C17           -1.7324     4.1961     0.5853 C.2     
  18 O18           -1.3457     3.5641     1.5398 O.2     
  19 O19           -2.0492     5.4932     0.7229 O.3     
  20 H20           -3.5261    -1.2641     0.3405 H       
  21 H21           -1.2152     4.0341    -1.4787 H       
  22 H22           -2.8942     3.5835    -1.0967 H       
  23 H23           -3.2040    -3.6384     1.1946 H       
  24 H24           -2.0731    -5.8108     0.9782 H       
  25 H25           -0.0685    -6.0258    -0.4302 H       
  26 H26           -0.2958    -1.8880    -1.4368 H       
  27 H27           -1.9517     5.8778     1.6048 H       
@<TRIPOS>BOND
   1    1    2 1
   2    1    7 2
   3    1    5 am
   4    2    3 1
   5    3    4 1
   6    3    8 2
   7    4    5 am
   8    4    6 2
   9    5   10 1
  10    8    9 1
  11    8   20 1
  12    9   11 ar
  13    9   15 ar
  14   10   17 1
  15   10   21 1
  16   10   22 1
  17   11   12 ar
  18   11   23 1
  19   12   13 ar
  20   12   24 1
  21   13   14 ar
  22   13   25 1
  23   14   15 ar
  24   14   16 1
  25   15   26 1
  26   17   18 2
  27   17   19 1
  28   19   27 1

#	End of record

