#	Name: ASD02500454
#	Creating user name:	WinNT
#	Creation time:	15. 06. 2019 20:22

#	Modifying user name:	WinNT
#	Modification time:	15. 06. 2019 20:22

#	Program:	/corina/corina34_cracker 3.40 0067  02.08.2006

@<TRIPOS>MOLECULE
ASD02500454
  73   77    0    0    0
SMALL
NO_CHARGES


@<TRIPOS>ATOM
   1 N1             1.8449     3.9507    -0.9067 N.ar    
   2 C2             2.8169     3.6372    -0.0850 C.ar    
   3 C3             3.9421     2.9362    -0.5137 C.ar    
   4 C4             4.0519     2.5573    -1.8213 C.ar    
   5 C5             3.0060     2.8954    -2.7008 C.ar    
   6 C6             3.0487     2.5403    -4.0584 C.ar    
   7 C7             2.0171     2.8862    -4.8771 C.ar    
   8 C8             0.9189     3.5886    -4.3857 C.ar    
   9 C9             0.8448     3.9488    -3.0752 C.ar    
  10 C10            1.8900     3.6100    -2.1986 C.ar    
  11 S11           -0.5555     4.8375    -2.4802 S.o2    
  12 O12           -0.0469     5.9377    -1.7384 O.2     
  13 O13           -1.4360     4.9859    -3.5856 O.2     
  14 N14           -1.3312     3.8589    -1.3926 N.am    
  15 C15           -1.8626     2.6428    -1.8073 C.ar    
  16 C16           -1.6333     1.4925    -1.0573 C.ar    
  17 C17           -2.1579     0.2875    -1.4652 C.ar    
  18 C18           -2.9218     0.2191    -2.6339 C.ar    
  19 C19           -3.1504     1.3759    -3.3848 C.ar    
  20 C20           -2.6278     2.5790    -2.9686 C.ar    
  21 C21           -3.4853    -1.0712    -3.0742 C.2     
  22 O22           -4.6082    -1.1175    -3.5384 O.2     
  23 N23           -2.7555    -2.1987    -2.9619 N.am    
  24 C24           -3.2653    -3.4816    -3.4692 C.3     
  25 C25           -2.1941    -4.1106    -4.3664 C.3     
  26 N26           -0.9277    -4.1943    -3.6266 N.3     
  27 C27           -0.4291    -2.8591    -3.2709 C.3     
  28 C28           -1.4255    -2.1776    -2.3343 C.3     
  29 C29            0.0784    -4.9461    -4.3886 C.3     
  30 C30            1.4225    -4.8044    -3.7221 C.ar    
  31 C31            1.8117    -5.7124    -2.7552 C.ar    
  32 C32            3.0475    -5.5852    -2.1392 C.ar    
  33 C33            3.8954    -4.5433    -2.4955 C.ar    
  34 C34            3.5006    -3.6327    -3.4684 C.ar    
  35 C35            2.2653    -3.7700    -4.0833 C.ar    
  36 O36            4.3266    -2.6112    -3.8202 O.3     
  37 C37            3.8555    -1.7134    -4.8271 C.3     
  38 O38            5.1089    -4.4148    -1.8929 O.3     
  39 C39            6.2114    -5.0873    -2.5046 C.3     
  40 O40            3.4290    -6.4785    -1.1874 O.3     
  41 C41            2.5068    -7.5234    -0.8714 C.3     
  42 H42            2.7437     3.9303     0.9519 H       
  43 H43            4.7269     2.6930     0.1872 H       
  44 H44            4.9173     2.0138    -2.1708 H       
  45 H45            3.8950     1.9964    -4.4511 H       
  46 H46            2.0508     2.6126    -5.9214 H       
  47 H47            0.1136     3.8519    -5.0554 H       
  48 H48           -1.4148     4.1340    -0.4662 H       
  49 H49           -1.0427     1.5459    -0.1547 H       
  50 H50           -1.9793    -0.6046    -0.8831 H       
  51 H51           -3.7399     1.3262    -4.2884 H       
  52 H52           -2.8080     3.4739    -3.5457 H       
  53 H53           -3.4793    -4.1471    -2.6328 H       
  54 H54           -4.1736    -3.3118    -4.0473 H       
  55 H55           -2.5092    -5.1112    -4.6624 H       
  56 H56           -2.0562    -3.4945    -5.2550 H       
  57 H57            0.5357    -2.9520    -2.7724 H       
  58 H58           -0.3159    -2.2604    -4.1747 H       
  59 H59           -1.1180    -1.1461    -2.1625 H       
  60 H60           -1.4592    -2.7153    -1.3867 H       
  61 H61           -0.2021    -5.9989    -4.4205 H       
  62 H62            0.1332    -4.5537    -5.4040 H       
  63 H63            1.1521    -6.5218    -2.4789 H       
  64 H64            1.9596    -3.0654    -4.8425 H       
  65 H65            3.6655    -2.2664    -5.7470 H       
  66 H66            2.9328    -1.2411    -4.4900 H       
  67 H67            4.6088    -0.9477    -5.0125 H       
  68 H68            6.3473    -4.7136    -3.5195 H       
  69 H69            7.1162    -4.9030    -1.9254 H       
  70 H70            6.0118    -6.1584    -2.5355 H       
  71 H71            1.5755    -7.0885    -0.5084 H       
  72 H72            2.3076    -8.1148    -1.7651 H       
  73 H73            2.9338    -8.1638    -0.0997 H       
@<TRIPOS>BOND
   1    1    2 ar
   2    1   10 ar
   3    2    3 ar
   4    2   42 1
   5    3    4 ar
   6    3   43 1
   7    4    5 ar
   8    4   44 1
   9    5    6 ar
  10    5   10 ar
  11    6    7 ar
  12    6   45 1
  13    7    8 ar
  14    7   46 1
  15    8    9 ar
  16    8   47 1
  17    9   10 ar
  18    9   11 1
  19   11   12 2
  20   11   13 2
  21   11   14 am
  22   14   15 1
  23   14   48 1
  24   15   16 ar
  25   15   20 ar
  26   16   17 ar
  27   16   49 1
  28   17   18 ar
  29   17   50 1
  30   18   19 ar
  31   18   21 1
  32   19   20 ar
  33   19   51 1
  34   20   52 1
  35   21   22 2
  36   21   23 am
  37   23   24 1
  38   23   28 1
  39   24   25 1
  40   24   53 1
  41   24   54 1
  42   25   26 1
  43   25   55 1
  44   25   56 1
  45   26   27 1
  46   26   29 1
  47   27   28 1
  48   27   57 1
  49   27   58 1
  50   28   59 1
  51   28   60 1
  52   29   30 1
  53   29   61 1
  54   29   62 1
  55   30   31 ar
  56   30   35 ar
  57   31   32 ar
  58   31   63 1
  59   32   33 ar
  60   32   40 1
  61   33   34 ar
  62   33   38 1
  63   34   35 ar
  64   34   36 1
  65   35   64 1
  66   36   37 1
  67   37   65 1
  68   37   66 1
  69   37   67 1
  70   38   39 1
  71   39   68 1
  72   39   69 1
  73   39   70 1
  74   40   41 1
  75   41   71 1
  76   41   72 1
  77   41   73 1

#	End of record

