#	Name: ASD00241010
#	Creating user name:	WinNT
#	Creation time:	15. 06. 2019 18:33

#	Modifying user name:	WinNT
#	Modification time:	15. 06. 2019 18:33

#	Program:	/corina/corina34_cracker 3.40 0067  02.08.2006

@<TRIPOS>MOLECULE
ASD00241010
  47   49    0    0    0
SMALL
NO_CHARGES


@<TRIPOS>ATOM
   1 C1            -0.6741     0.5581     0.2148 C.3     
   2 C2            -0.8868    -0.9677     0.3322 C.3     
   3 C3            -1.5780    -1.1460     1.7022 C.3     
   4 O4            -2.2122     0.1249     1.9637 O.3     
   5 C5            -1.2619     1.1212     1.5278 C.3     
   6 C6            -2.3517    -3.5542     1.7987 C.ar    
   7 C7            -3.5994    -4.1818     1.6472 C.ar    
   8 N8            -1.2794    -4.2997     2.0460 N.ar    
   9 C9            -1.3810    -5.6080     2.1482 C.ar    
  10 N10           -2.5315    -6.2425     2.0131 N.ar    
  11 C11           -3.6571    -5.5811     1.7653 C.ar    
  12 N12           -4.5095    -3.2078     1.4055 N.2     
  13 C13           -3.9141    -2.0506     1.3992 C.2     
  14 N14           -2.5808    -2.2117     1.6326 N.pl3   
  15 C15           -1.9685     2.4530     1.2669 C.3     
  16 N16           -2.5898     2.9294     2.5099 N.3     
  17 C17           -1.5819     3.4845     3.4231 C.3     
  18 C18           -2.2084     3.7345     4.7707 C.2     
  19 C19           -1.6553     3.2427     5.8516 C.2     
  20 O20            0.7185     0.8636     0.1182 O.3     
  21 F21           -1.7141    -1.4280    -0.6978 F       
  22 N22           -4.8579    -6.2546     1.6257 N.pl3   
  23 C23           -0.3048     2.5788     5.7716 C.3     
  24 N24            0.5982     3.1852     6.7590 N.3     
  25 C25           -3.6437     3.9131     2.2283 C.3     
  26 H26           -1.2115     0.9535    -0.6472 H       
  27 H27            0.0703    -1.4891     0.3166 H       
  28 H28           -0.8403    -1.3678     2.4734 H       
  29 H29           -0.4758     1.2472     2.2722 H       
  30 H30           -0.4901    -6.1844     2.3497 H       
  31 H31           -4.4036    -1.1028     1.2304 H       
  32 H32           -1.2422     3.1876     0.9191 H       
  33 H33           -2.7371     2.3138     0.5067 H       
  34 H34           -0.7597     2.7770     3.5303 H       
  35 H35           -1.2031     4.4232     3.0188 H       
  36 H36           -3.1135     4.3191     4.8454 H       
  37 H37           -2.1672     3.3130     6.8000 H       
  38 H38            1.1518     0.4827    -0.6578 H       
  39 H39           -4.8846    -7.2207     1.7086 H       
  40 H40           -5.6729    -5.7606     1.4450 H       
  41 H41           -0.4102     1.5143     5.9812 H       
  42 H42            0.1075     2.7131     4.7716 H       
  43 H43            1.5111     2.7568     6.7252 H       
  44 H44            0.6619     4.1833     6.6257 H       
  45 H45           -4.3596     3.4874     1.5251 H       
  46 H46           -4.1553     4.1730     3.1550 H       
  47 H47           -3.1984     4.8090     1.7956 H       
@<TRIPOS>BOND
   1    1    2 1
   2    1   20 1
   3    1    5 1
   4    1   26 1
   5    2    3 1
   6    2   21 1
   7    2   27 1
   8    3    4 1
   9    3   14 1
  10    3   28 1
  11    4    5 1
  12    5   15 1
  13    5   29 1
  14    6    7 ar
  15    6    8 ar
  16    6   14 1
  17    7   12 1
  18    7   11 ar
  19    8    9 ar
  20    9   10 ar
  21    9   30 1
  22   10   11 ar
  23   11   22 1
  24   12   13 2
  25   13   14 1
  26   13   31 1
  27   15   16 1
  28   15   32 1
  29   15   33 1
  30   16   17 1
  31   16   25 1
  32   17   18 1
  33   17   34 1
  34   17   35 1
  35   18   19 2
  36   18   36 1
  37   19   23 1
  38   19   37 1
  39   20   38 1
  40   22   39 1
  41   22   40 1
  42   23   24 1
  43   23   41 1
  44   23   42 1
  45   24   43 1
  46   24   44 1
  47   25   45 1
  48   25   46 1
  49   25   47 1

#	End of record

