#	Name: ASD01150667
#	Creating user name:	WinNT
#	Creation time:	15. 06. 2019 19:04

#	Modifying user name:	WinNT
#	Modification time:	15. 06. 2019 19:04

#	Program:	/corina/corina34_cracker 3.40 0067  02.08.2006

@<TRIPOS>MOLECULE
ASD01150667
  44   46    0    0    0
SMALL
NO_CHARGES


@<TRIPOS>ATOM
   1 C1             0.3308     1.5350     0.7072 C.ar    
   2 C2             0.4051     0.1881     1.0042 C.ar    
   3 C3             2.0178    -0.1134    -0.7484 C.ar    
   4 C4             1.9449     1.2391    -1.0499 C.ar    
   5 C5             1.1008     2.0648    -0.3212 C.ar    
   6 N6             1.0247     3.4296    -0.6218 N.am    
   7 C7            -0.1793     4.0102    -0.7698 C.2     
   8 N8            -0.2867     5.3204    -1.0595 N.am    
   9 C9             0.8234     6.0731    -1.2054 C.2     
  10 C10            2.1387     5.4451    -1.0445 C.2     
  11 N11            2.2028     4.1734    -0.7587 N.2     
  12 O12            0.7343     7.2583    -1.4677 O.2     
  13 C13           -1.6099     5.9293    -1.2168 C.3     
  14 O14           -1.1864     3.3412    -0.6405 O.2     
  15 C15           -2.0883     6.4428     0.1168 C.ar    
  16 Br16           3.7190     6.4648    -1.2415 Br      
  17 C17            1.2451    -0.6367     0.2805 C.ar    
  18 N18            2.8681    -0.9493    -1.4806 N.am    
  19 C19            4.0552    -0.4858    -1.9192 C.2     
  20 O20            4.3506     0.6787    -1.7522 O.2     
  21 C21            5.0154    -1.4142    -2.6171 C.3     
  22 C22           -1.7943     7.7365     0.5053 C.ar    
  23 C23           -2.2331     8.2074     1.7286 C.ar    
  24 C24           -2.9663     7.3849     2.5633 C.ar    
  25 C25           -3.2612     6.0916     2.1744 C.ar    
  26 C26           -2.8260     5.6220     0.9493 C.ar    
  27 C27           -3.4439     7.8981     3.8973 C.3     
  28 H28           -0.3297     2.1763     1.2719 H       
  29 H29           -0.1943    -0.2212     1.8039 H       
  30 H30            2.5441     1.6483    -1.8499 H       
  31 H31           -1.5474     6.7568    -1.9235 H       
  32 H32           -2.3108     5.1835    -1.5916 H       
  33 H33            1.3012    -1.6894     0.5154 H       
  34 H34            2.6031    -1.8625    -1.6726 H       
  35 H35            4.8200    -1.4001    -3.6893 H       
  36 H36            6.0381    -1.0870    -2.4298 H       
  37 H37            4.8826    -2.4271    -2.2369 H       
  38 H38           -1.2214     8.3791    -0.1468 H       
  39 H39           -2.0028     9.2179     2.0324 H       
  40 H40           -3.8337     5.4488     2.8267 H       
  41 H41           -3.0564     4.6115     0.6455 H       
  42 H42           -4.4280     8.3519     3.7809 H       
  43 H43           -3.5068     7.0703     4.6036 H       
  44 H44           -2.7422     8.6431     4.2723 H       
@<TRIPOS>BOND
   1    1    2 ar
   2    1    5 ar
   3    1   28 1
   4    2   17 ar
   5    2   29 1
   6    3    4 ar
   7    3   18 1
   8    3   17 ar
   9    4    5 ar
  10    4   30 1
  11    5    6 1
  12    6    7 am
  13    6   11 1
  14    7    8 am
  15    7   14 2
  16    8    9 am
  17    8   13 1
  18    9   10 1
  19    9   12 2
  20   10   11 2
  21   10   16 1
  22   13   15 1
  23   13   31 1
  24   13   32 1
  25   15   22 ar
  26   15   26 ar
  27   17   33 1
  28   18   19 am
  29   18   34 1
  30   19   20 2
  31   19   21 1
  32   21   35 1
  33   21   36 1
  34   21   37 1
  35   22   23 ar
  36   22   38 1
  37   23   24 ar
  38   23   39 1
  39   24   25 ar
  40   24   27 1
  41   25   26 ar
  42   25   40 1
  43   26   41 1
  44   27   42 1
  45   27   43 1
  46   27   44 1

#	End of record

