#	Name: ASD03240458
#	Creating user name:	WinNT
#	Creation time:	15. 06. 2019 20:35

#	Modifying user name:	WinNT
#	Modification time:	15. 06. 2019 20:35

#	Program:	/corina/corina34_cracker 3.40 0067  02.08.2006

@<TRIPOS>MOLECULE
ASD03240458
  40   42    0    0    0
SMALL
NO_CHARGES


@<TRIPOS>ATOM
   1 C1             0.0330     1.4778    -0.0440 C.ar    
   2 C2            -2.3542     2.4339     2.2811 C.ar    
   3 C3            -1.4712     2.8755     1.3124 C.ar    
   4 C4            -1.3319     2.1132     0.0198 C.3     
   5 C5            -2.4856     3.1283     3.4667 C.ar    
   6 C6            -1.7270     4.2757     3.6867 C.ar    
   7 C7            -0.8395     4.7163     2.7076 C.ar    
   8 C8            -0.7159     4.0144     1.5255 C.ar    
   9 C9            -1.8645     5.0269     4.9600 C.2     
  10 C10           -1.1871     6.1599     5.3048 C.2     
  11 N11           -1.5998     6.5232     6.5359 N.pl3   
  12 N12           -2.5558     5.5961     6.9682 N.2     
  13 C13           -2.7225     4.7030     6.0290 C.2     
  14 C14            0.1584     0.1028     0.0155 C.ar    
  15 C15            1.1593     2.2702    -0.1680 C.ar    
  16 C16            2.4111     1.6878    -0.2328 C.ar    
  17 C17            2.5378     0.3125    -0.1733 C.ar    
  18 C18            1.4114    -0.4808    -0.0489 C.ar    
  19 Cl19           1.5698    -2.2079     0.0265 Cl      
  20 C20           -1.5033     3.0730    -1.1593 C.3     
  21 N21           -1.4871     2.3126    -2.4160 N.3     
  22 C22           -1.6496     3.2036    -3.5726 C.3     
  23 H23           -2.9451     1.5467     2.1077 H       
  24 H24           -2.0964     1.3377    -0.0288 H       
  25 H25           -3.1756     2.7828     4.2224 H       
  26 H26           -0.2490     5.6053     2.8731 H       
  27 H27           -0.0279     4.3549     0.7659 H       
  28 H28           -0.4531     6.6729     4.7010 H       
  29 H29           -1.2880     7.2937     7.0359 H       
  30 H30           -3.3955     3.8593     6.0685 H       
  31 H31           -0.7213    -0.5160     0.1126 H       
  32 H32            1.0608     3.3447    -0.2145 H       
  33 H33            3.2904     2.3073    -0.3303 H       
  34 H34            3.5159    -0.1425    -0.2243 H       
  35 H35           -2.4536     3.5985    -1.0648 H       
  36 H36           -0.6872     3.7955    -1.1613 H       
  37 H37           -0.6431     1.7655    -2.4968 H       
  38 H38           -0.8345     3.9270    -3.5913 H       
  39 H39           -1.6340     2.6148    -4.4898 H       
  40 H40           -2.6009     3.7300    -3.4949 H       
@<TRIPOS>BOND
   1    1   14 ar
   2    1   15 ar
   3    1    4 1
   4    2    3 ar
   5    2    5 ar
   6    2   23 1
   7    3    4 1
   8    3    8 ar
   9    4   20 1
  10    4   24 1
  11    5    6 ar
  12    5   25 1
  13    6    7 ar
  14    6    9 1
  15    7    8 ar
  16    7   26 1
  17    8   27 1
  18    9   10 2
  19    9   13 1
  20   10   11 1
  21   10   28 1
  22   11   12 1
  23   11   29 1
  24   12   13 2
  25   13   30 1
  26   14   18 ar
  27   14   31 1
  28   15   16 ar
  29   15   32 1
  30   16   17 ar
  31   16   33 1
  32   17   18 ar
  33   17   34 1
  34   18   19 1
  35   20   21 1
  36   20   35 1
  37   20   36 1
  38   21   22 1
  39   21   37 1
  40   22   38 1
  41   22   39 1
  42   22   40 1

#	End of record

