#	Name: ASD00842678
#	Creating user name:	WinNT
#	Creation time:	15. 06. 2019 18:45

#	Modifying user name:	WinNT
#	Modification time:	15. 06. 2019 18:45

#	Program:	/corina/corina34_cracker 3.40 0067  02.08.2006

@<TRIPOS>MOLECULE
ASD00842678
  81   86    0    0    0
SMALL
NO_CHARGES


@<TRIPOS>ATOM
   1 F1            -0.0762    -3.1158     4.7249 F       
   2 C2            -0.0167     1.3829     0.0096 C.ar    
   3 C3             0.0021    -0.0041     0.0020 C.ar    
   4 C4             1.2143    -0.6791    -0.0132 C.ar    
   5 C5             2.3989     0.0312    -0.0207 C.ar    
   6 C6             2.3774     1.4139    -0.0126 C.ar    
   7 C7             1.1710     2.0888     0.0021 C.ar    
   8 C8             1.2384    -2.1858    -0.0210 C.3     
   9 C9             0.4954    -2.7217    -1.2260 C.2     
  10 O10            2.6067    -2.6714    -0.0100 O.3     
  11 C11            3.3978    -2.2930    -1.0317 C.2     
  12 N12            4.6788    -2.7088    -1.0818 N.am    
  13 O13            2.9568    -1.5767    -1.9085 O.2     
  14 C14            5.5543    -2.3043    -2.1903 C.3     
  15 C15            6.1658    -3.5603    -2.8192 C.3     
  16 C16            6.8652    -4.3809    -1.7331 C.3     
  17 C17            5.8417    -4.8164    -0.6819 C.3     
  18 C18            5.2282    -3.5702    -0.0259 C.3     
  19 C19            7.5068    -5.6187    -2.3633 C.3     
  20 C20            8.5323    -5.1846    -3.4142 C.3     
  21 C21            9.2140    -6.4244    -3.9974 C.3     
  22 N22            9.8761    -7.1724    -2.9210 N.3     
  23 C23            8.9046    -7.6403    -1.9242 C.3     
  24 C24            8.2137    -6.4368    -1.2791 C.3     
  25 H25           10.4123    -7.9422    -3.2925 H       
  26 O26            0.7745    -2.5251    -2.3899 O.2     
  27 N27           -0.5308    -3.4561    -0.7651 N.am    
  28 C28            0.4695    -2.7339     1.1599 C.ar    
  29 C29           -0.5756    -3.4845     0.6309 C.ar    
  30 C30            0.6376    -2.6093     2.5214 C.ar    
  31 C31           -0.2397    -3.2360     3.3892 C.ar    
  32 C32           -1.2963    -3.9947     2.8754 C.ar    
  33 C33           -1.4606    -4.1171     1.4959 C.ar    
  34 C34           -0.9792    -5.8526    -2.0419 C.ar    
  35 C35           -1.3031    -6.8940    -1.1925 C.ar    
  36 C36           -0.1591    -6.0789    -3.1314 C.ar    
  37 C37            0.3370    -7.3466    -3.3717 C.ar    
  38 C38            0.0134    -8.3879    -2.5221 C.ar    
  39 C39           -0.8067    -8.1616    -1.4325 C.ar    
  40 H40            0.4009    -9.3783    -2.7099 H       
  41 H41           -1.9438    -6.7173    -0.3412 H       
  42 S42           -1.6174    -4.2383    -1.7397 S.o2    
  43 O43           -2.7973    -4.4114    -0.9671 O.2     
  44 O44           -1.5983    -3.5592    -2.9878 O.2     
  45 O45           -1.1648    -0.7006     0.0099 O.3     
  46 C46           -3.5740    -0.8895     0.0328 C.3     
  47 C47           -2.3744     0.0601     0.0260 C.3     
  48 C48           -2.2089    -4.6466     3.7658 C.1     
  49 N49           -2.9329    -5.1638     4.4721 N.1     
  50 H50           -0.9590     1.9106     0.0170 H       
  51 H51            3.3426    -0.4937    -0.0325 H       
  52 H52            3.3047     1.9675    -0.0178 H       
  53 H53            1.1569     3.1687     0.0084 H       
  54 H54            4.9717    -1.7675    -2.9389 H       
  55 H55            6.3489    -1.6610    -1.8123 H       
  56 H56            5.3778    -4.1586    -3.2765 H       
  57 H57            6.8909    -3.2702    -3.5796 H       
  58 H58            7.6365    -3.7737    -1.2593 H       
  59 H59            5.0568    -5.4030    -1.1594 H       
  60 H60            6.3362    -5.4205     0.0789 H       
  61 H61            5.9977    -3.0326     0.5282 H       
  62 H62            4.4290    -3.8700     0.6520 H       
  63 H63            6.7362    -6.2277    -2.8361 H       
  64 H64            8.0278    -4.6380    -4.2110 H       
  65 H65            9.2806    -4.5428    -2.9491 H       
  66 H66            8.4671    -7.0590    -4.4744 H       
  67 H67            9.9550    -6.1180    -4.7357 H       
  68 H68            8.1592    -8.2692    -2.4109 H       
  69 H69            9.4209    -8.2171    -1.1568 H       
  70 H70            8.9570    -5.8147    -0.7804 H       
  71 H71            7.4816    -6.7849    -0.5504 H       
  72 H72            1.4553    -2.0220     2.9122 H       
  73 H73           -2.2766    -4.7032     1.0995 H       
  74 H74            0.0937    -5.2653    -3.7952 H       
  75 H75            0.9771    -7.5235    -4.2234 H       
  76 H76           -1.0598    -8.9753    -0.7690 H       
  77 H77           -4.4966    -0.3093     0.0451 H       
  78 H78           -3.5489    -1.5131    -0.8609 H       
  79 H79           -3.5312    -1.5227     0.9190 H       
  80 H80           -2.3995     0.6837     0.9196 H       
  81 H81           -2.4172     0.6932    -0.8603 H       
@<TRIPOS>BOND
   1    1   31 1
   2    2    3 ar
   3    2    7 ar
   4    2   50 1
   5    3    4 ar
   6    3   45 1
   7    4    5 ar
   8    4    8 1
   9    5    6 ar
  10    5   51 1
  11    6    7 ar
  12    6   52 1
  13    7   53 1
  14    8    9 1
  15    8   10 1
  16    8   28 1
  17    9   26 2
  18    9   27 am
  19   10   11 1
  20   11   12 am
  21   11   13 2
  22   12   14 1
  23   12   18 1
  24   14   15 1
  25   14   54 1
  26   14   55 1
  27   15   16 1
  28   15   56 1
  29   15   57 1
  30   16   17 1
  31   16   19 1
  32   16   58 1
  33   17   18 1
  34   17   59 1
  35   17   60 1
  36   18   61 1
  37   18   62 1
  38   19   20 1
  39   19   24 1
  40   19   63 1
  41   20   21 1
  42   20   64 1
  43   20   65 1
  44   21   22 1
  45   21   66 1
  46   21   67 1
  47   22   23 1
  48   22   25 1
  49   23   24 1
  50   23   68 1
  51   23   69 1
  52   24   70 1
  53   24   71 1
  54   27   42 am
  55   27   29 1
  56   28   29 ar
  57   28   30 ar
  58   29   33 ar
  59   30   31 ar
  60   30   72 1
  61   31   32 ar
  62   32   33 ar
  63   32   48 1
  64   33   73 1
  65   34   35 ar
  66   34   36 ar
  67   34   42 1
  68   35   41 1
  69   35   39 ar
  70   36   37 ar
  71   36   74 1
  72   37   38 ar
  73   37   75 1
  74   38   39 ar
  75   38   40 1
  76   39   76 1
  77   42   43 2
  78   42   44 2
  79   45   47 1
  80   46   47 1
  81   46   77 1
  82   46   78 1
  83   46   79 1
  84   47   80 1
  85   47   81 1
  86   48   49 3

#	End of record

