#	Name: ASD00842200
#	Creating user name:	WinNT
#	Creation time:	15. 06. 2019 18:43

#	Modifying user name:	WinNT
#	Modification time:	15. 06. 2019 18:43

#	Program:	/corina/corina34_cracker 3.40 0067  02.08.2006

@<TRIPOS>MOLECULE
ASD00842200
  93   98    0    0    0
SMALL
NO_CHARGES


@<TRIPOS>ATOM
   1 F1             5.9962    -1.6864    -2.1843 F       
   2 C2             0.8716     1.5120    -0.7169 C.ar    
   3 C3             1.2091     0.1736    -0.8543 C.ar    
   4 C4             1.1950    -0.6604     0.2545 C.ar    
   5 C5             0.8451    -0.1563     1.4919 C.ar    
   6 C6             0.5086     1.1782     1.6262 C.ar    
   7 C7             0.5224     2.0113     0.5231 C.ar    
   8 C8             1.5606    -2.1151     0.1087 C.3     
   9 C9             1.3507    -2.8481     1.4162 C.2     
  10 C10            0.7388    -2.7636    -1.0072 C.3     
  11 C11           -0.7282    -2.5372    -0.7471 C.2     
  12 N12           -1.6496    -3.0773    -1.5692 N.am    
  13 O13           -1.0797    -1.8689     0.2020 O.2     
  14 C14           -3.0762    -2.7694    -1.3998 C.3     
  15 C15           -3.8547    -4.0842    -1.2899 C.3     
  16 C16           -3.5408    -4.9613    -2.5041 C.3     
  17 C17           -2.0454    -5.2859    -2.5281 C.3     
  18 C18           -1.2458    -3.9803    -2.6555 C.3     
  19 N19           -4.3112    -6.2091    -2.4187 N.3     
  20 C20           -4.1265    -7.0258    -3.6265 C.3     
  21 C21           -4.8793    -8.3485    -3.4647 C.3     
  22 N22           -6.3038    -8.0730    -3.2315 N.3     
  23 C23           -6.4885    -7.2564    -2.0238 C.3     
  24 C24           -5.7357    -5.9337    -2.1855 C.3     
  25 H25           -6.7227    -7.6297    -4.0353 H       
  26 O26            0.2998    -2.9788     2.0077 O.2     
  27 N27            2.5460    -3.3273     1.7988 N.am    
  28 C28            3.0402    -2.2645    -0.1643 C.ar    
  29 C29            3.5598    -3.0030     0.8940 C.ar    
  30 C30            3.8486    -1.8249    -1.1893 C.ar    
  31 C31            5.2017    -2.1157    -1.1795 C.ar    
  32 C32            5.7417    -2.8571    -0.1236 C.ar    
  33 C33            4.9176    -3.2994     0.9108 C.ar    
  34 C34            2.5675    -5.9013     2.7727 C.ar    
  35 C35            1.3221    -6.3594     2.3675 C.ar    
  36 C36            3.6353    -6.7753     2.8490 C.ar    
  37 C37            3.4658    -8.1068     2.5217 C.ar    
  38 C38            2.2220    -8.5699     2.1158 C.ar    
  39 C39            1.1493    -7.6953     2.0389 C.ar    
  40 O40            2.0558    -9.8798     1.7943 O.3     
  41 O41            0.2724    -5.4995     2.2931 O.3     
  42 C42            3.2043   -10.7238     1.8969 C.3     
  43 C43           -0.9803    -6.0402     1.8684 C.3     
  44 C44           -2.0336    -4.9307     1.8467 C.3     
  45 C45            7.1406    -3.1627    -0.1052 C.1     
  46 N46            8.2503    -3.4051    -0.0906 N.1     
  47 O47            1.5526    -0.3201    -2.0730 O.3     
  48 C48            1.9596    -0.1279    -4.4475 C.3     
  49 C49            1.4370     0.5662    -3.1880 C.3     
  50 S50            2.7896    -4.2023     3.1835 S.o2    
  51 O51            4.1614    -4.0469     3.5203 O.2     
  52 O52            1.7293    -3.8608     4.0657 O.2     
  53 H53            0.8862     2.1642    -1.5776 H       
  54 H54            0.8340    -0.8051     2.3553 H       
  55 H55            0.2347     1.5703     2.5945 H       
  56 H56            0.2592     3.0533     0.6306 H       
  57 H57            1.0110    -2.3188    -1.9643 H       
  58 H58            0.9423    -3.8341    -1.0330 H       
  59 H59           -3.2183    -2.1836    -0.4917 H       
  60 H60           -3.4328    -2.2045    -2.2611 H       
  61 H61           -3.5613    -4.6057    -0.3788 H       
  62 H62           -4.9236    -3.8727    -1.2605 H       
  63 H63           -3.8115    -4.4293    -3.4161 H       
  64 H64           -1.7690    -5.7961    -1.6054 H       
  65 H65           -1.8265    -5.9298    -3.3800 H       
  66 H66           -1.4544    -3.5168    -3.6198 H       
  67 H67           -0.1803    -4.1949    -2.5738 H       
  68 H68           -4.5161    -6.4890    -4.4915 H       
  69 H69           -3.0649    -7.2268    -3.7707 H       
  70 H70           -4.7676    -8.9437    -4.3710 H       
  71 H71           -4.4714    -8.8976    -2.6161 H       
  72 H72           -7.5501    -7.0554    -1.8796 H       
  73 H73           -6.0989    -7.7931    -1.1588 H       
  74 H74           -5.8474    -5.3385    -1.2792 H       
  75 H75           -6.1436    -5.3845    -3.0342 H       
  76 H76            3.4259    -1.2528    -2.0020 H       
  77 H77            5.3349    -3.8718     1.7260 H       
  78 H78            4.6040    -6.4169     3.1646 H       
  79 H79            4.3020    -8.7877     2.5813 H       
  80 H80            0.1806    -8.0539     1.7236 H       
  81 H81            2.9344   -11.7409     1.6126 H       
  82 H82            3.9860   -10.3560     1.2322 H       
  83 H83            3.5687   -10.7182     2.9242 H       
  84 H84           -0.8743    -6.4602     0.8682 H       
  85 H85           -1.2914    -6.8231     2.5601 H       
  86 H86           -2.1396    -4.5107     2.8469 H       
  87 H87           -1.7225    -4.1479     1.1550 H       
  88 H88           -2.9891    -5.3432     1.5227 H       
  89 H89            1.3202    -0.9778    -4.6858 H       
  90 H90            1.9532     0.5762    -5.2795 H       
  91 H91            2.9777    -0.4764    -4.2743 H       
  92 H92            0.3908     0.8370    -3.3300 H       
  93 H93            2.0228     1.4658    -2.9994 H       
@<TRIPOS>BOND
   1    1   31 1
   2    2    3 ar
   3    2    7 ar
   4    2   53 1
   5    3    4 ar
   6    3   47 1
   7    4    5 ar
   8    4    8 1
   9    5    6 ar
  10    5   54 1
  11    6    7 ar
  12    6   55 1
  13    7   56 1
  14    8    9 1
  15    8   10 1
  16    8   28 1
  17    9   26 2
  18    9   27 am
  19   10   11 1
  20   10   57 1
  21   10   58 1
  22   11   12 am
  23   11   13 2
  24   12   14 1
  25   12   18 1
  26   14   15 1
  27   14   59 1
  28   14   60 1
  29   15   16 1
  30   15   61 1
  31   15   62 1
  32   16   17 1
  33   16   19 1
  34   16   63 1
  35   17   18 1
  36   17   64 1
  37   17   65 1
  38   18   66 1
  39   18   67 1
  40   19   20 1
  41   19   24 1
  42   20   21 1
  43   20   68 1
  44   20   69 1
  45   21   22 1
  46   21   70 1
  47   21   71 1
  48   22   23 1
  49   22   25 1
  50   23   24 1
  51   23   72 1
  52   23   73 1
  53   24   74 1
  54   24   75 1
  55   27   50 am
  56   27   29 1
  57   28   29 ar
  58   28   30 ar
  59   29   33 ar
  60   30   31 ar
  61   30   76 1
  62   31   32 ar
  63   32   33 ar
  64   32   45 1
  65   33   77 1
  66   34   35 ar
  67   34   36 ar
  68   34   50 1
  69   35   41 1
  70   35   39 ar
  71   36   37 ar
  72   36   78 1
  73   37   38 ar
  74   37   79 1
  75   38   39 ar
  76   38   40 1
  77   39   80 1
  78   40   42 1
  79   41   43 1
  80   42   81 1
  81   42   82 1
  82   42   83 1
  83   43   44 1
  84   43   84 1
  85   43   85 1
  86   44   86 1
  87   44   87 1
  88   44   88 1
  89   45   46 3
  90   47   49 1
  91   48   49 1
  92   48   89 1
  93   48   90 1
  94   48   91 1
  95   49   92 1
  96   49   93 1
  97   50   51 2
  98   50   52 2

#	End of record

