#	Name: ASD06170115
#	Creating user name:	WinNT
#	Creation time:	15. 06. 2019 21:05

#	Modifying user name:	WinNT
#	Modification time:	15. 06. 2019 21:05

#	Program:	/corina/corina34_cracker 3.40 0067  02.08.2006

@<TRIPOS>MOLECULE
ASD06170115
  65   69    0    0    0
SMALL
NO_CHARGES


@<TRIPOS>ATOM
   1 N1             0.5443     1.9636    -0.6796 N.pl3   
   2 N2             0.1472     0.6455    -0.4358 N.am    
   3 C3             1.2020    -0.0370     0.0561 C.2     
   4 C4             2.3221     0.9151     0.1217 C.2     
   5 C5             1.8396     2.1215    -0.3469 C.2     
   6 C6             3.6841     0.6375     0.5934 C.2     
   7 O7             4.5196     1.5224     0.5952 O.2     
   8 N8             4.0094    -0.5972     1.0247 N.am    
   9 C9            -1.1298     0.1221    -0.6633 C.ar    
  10 C10           -1.2807    -1.0579    -1.3799 C.ar    
  11 C11           -2.5430    -1.5723    -1.6023 C.ar    
  12 C12           -3.6559    -0.9135    -1.1128 C.ar    
  13 C13           -3.5090     0.2616    -0.3988 C.ar    
  14 C14           -2.2492     0.7783    -0.1680 C.ar    
  15 C15           -0.3189     3.0154    -1.2225 C.3     
  16 C16           -0.6614     3.9971    -0.1316 C.2     
  17 C17           -1.5434     5.1812    -0.4331 C.3     
  18 O18           -0.2291     3.8348     0.9843 O.2     
  19 O19            1.2229    -1.2092     0.3818 O.2     
  20 C20            2.6299     3.3991    -0.4664 C.3     
  21 C21            5.3380    -0.8982     1.3491 C.ar    
  22 C22            6.1679     0.0892     1.8642 C.ar    
  23 C23            7.4790    -0.2089     2.1845 C.ar    
  24 C24            7.9656    -1.4963     1.9910 C.ar    
  25 C25            7.1361    -2.4811     1.4767 C.ar    
  26 C26            5.8242    -2.1850     1.1613 C.ar    
  27 O27            9.2556    -1.7900     2.3056 O.3     
  28 N28           10.1594    -2.4288     6.2786 N.ar    
  29 C29            8.9337    -2.1248     5.9210 C.ar    
  30 C30            8.5920    -1.9026     4.5933 C.ar    
  31 C31            9.5604    -2.0011     3.6095 C.ar    
  32 C32           10.8769    -2.3289     4.0059 C.ar    
  33 C33           11.9116    -2.4461     3.0663 C.ar    
  34 C34           13.1690    -2.7626     3.4793 C.ar    
  35 C35           13.4451    -2.9735     4.8333 C.ar    
  36 C36           12.4511    -2.8663     5.7796 C.ar    
  37 C37           11.1452    -2.5405     5.3803 C.ar    
  38 O38           14.7087    -3.2883     5.2197 O.3     
  39 C39           15.6963    -3.3855     4.1915 C.3     
  40 F40            8.2873     0.7508     2.6852 F       
  41 H41            3.3232    -1.2775     1.1103 H       
  42 H42           -0.4120    -1.5726    -1.7631 H       
  43 H43           -2.6610    -2.4899    -2.1596 H       
  44 H44           -4.6419    -1.3175    -1.2887 H       
  45 H45           -4.3802     0.7737    -0.0178 H       
  46 H46           -2.1349     1.6940     0.3931 H       
  47 H47            0.2023     3.5339    -2.0273 H       
  48 H48           -1.2347     2.5696    -1.6107 H       
  49 H49           -1.8337     5.1599    -1.4835 H       
  50 H50           -2.4358     5.1379     0.1914 H       
  51 H51           -0.9988     6.1022    -0.2252 H       
  52 H52            2.5434     3.9678     0.4594 H       
  53 H53            3.6778     3.1622    -0.6508 H       
  54 H54            2.2401     3.9913    -1.2943 H       
  55 H55            5.7892     1.0895     2.0140 H       
  56 H56            7.5148    -3.4814     1.3265 H       
  57 H57            5.1776    -2.9537     0.7646 H       
  58 H58            8.1697    -2.0453     6.6802 H       
  59 H59            7.5744    -1.6547     4.3295 H       
  60 H60           11.7107    -2.2859     2.0173 H       
  61 H61           13.9628    -2.8523     2.7525 H       
  62 H62           12.6746    -3.0319     6.8232 H       
  63 H63           15.4060    -4.1593     3.4808 H       
  64 H64           15.7778    -2.4294     3.6745 H       
  65 H65           16.6584    -3.6419     4.6349 H       
@<TRIPOS>BOND
   1    1    2 1
   2    1    5 1
   3    1   15 1
   4    2    3 am
   5    2    9 1
   6    3    4 1
   7    3   19 2
   8    4    5 2
   9    4    6 1
  10    5   20 1
  11    6    7 2
  12    6    8 am
  13    8   21 1
  14    8   41 1
  15    9   10 ar
  16    9   14 ar
  17   10   11 ar
  18   10   42 1
  19   11   12 ar
  20   11   43 1
  21   12   13 ar
  22   12   44 1
  23   13   14 ar
  24   13   45 1
  25   14   46 1
  26   15   16 1
  27   15   47 1
  28   15   48 1
  29   16   17 1
  30   16   18 2
  31   17   49 1
  32   17   50 1
  33   17   51 1
  34   20   52 1
  35   20   53 1
  36   20   54 1
  37   21   22 ar
  38   21   26 ar
  39   22   23 ar
  40   22   55 1
  41   23   24 ar
  42   23   40 1
  43   24   25 ar
  44   24   27 1
  45   25   26 ar
  46   25   56 1
  47   26   57 1
  48   27   31 1
  49   28   29 ar
  50   28   37 ar
  51   29   30 ar
  52   29   58 1
  53   30   31 ar
  54   30   59 1
  55   31   32 ar
  56   32   33 ar
  57   32   37 ar
  58   33   34 ar
  59   33   60 1
  60   34   35 ar
  61   34   61 1
  62   35   36 ar
  63   35   38 1
  64   36   37 ar
  65   36   62 1
  66   38   39 1
  67   39   63 1
  68   39   64 1
  69   39   65 1

#	End of record

