#	Name: ASD01918120
#	Creating user name:	WinNT
#	Creation time:	15. 06. 2019 20:10

#	Modifying user name:	WinNT
#	Modification time:	15. 06. 2019 20:10

#	Program:	/corina/corina34_cracker 3.40 0067  02.08.2006

@<TRIPOS>MOLECULE
ASD01918120
  43   46    0    0    0
SMALL
NO_CHARGES


@<TRIPOS>ATOM
   1 N1            -0.8598     1.7340     0.1167 N.am    
   2 C2            -0.6662     0.3578    -0.0490 C.2     
   3 C3             1.3658     0.6700    -1.4564 C.3     
   4 C4             0.8104     2.0883    -1.6298 C.3     
   5 C5             0.2627     2.6009    -0.2932 C.3     
   6 C6            -1.3905    -0.6760     0.4304 C.2     
   7 C7            -0.7860    -1.8591    -0.0136 C.2     
   8 N8             0.2633    -1.5426    -0.7339 N.2     
   9 N9             0.3630    -0.1526    -0.7747 N.pl3   
  10 C10           -1.2605    -3.2577     0.2859 C.3     
  11 N11           -2.1120    -3.7319    -0.8132 N.3     
  12 C12           -2.0057     2.2384     0.6158 C.2     
  13 O13           -2.9434     1.5036     0.8432 O.2     
  14 C14           -2.1217     3.7155     0.8913 C.3     
  15 C15           -4.1238    -3.3899    -2.1470 C.3     
  16 O16           -3.3254    -3.1151    -3.3028 O.3     
  17 C17           -2.0102    -3.4604    -3.2333 C.ar    
  18 C18           -1.4041    -3.7607    -2.0190 C.ar    
  19 C19           -3.3383    -2.9316    -0.9114 C.3     
  20 C20           -1.2701    -3.5090    -4.4058 C.ar    
  21 C21            0.0683    -3.8525    -4.3695 C.ar    
  22 C22            0.6741    -4.1480    -3.1629 C.ar    
  23 C23           -0.0562    -4.1035    -1.9916 C.ar    
  24 H24            1.5853     0.2419    -2.4345 H       
  25 H25            2.2766     0.7053    -0.8588 H       
  26 H26            1.6064     2.7494    -1.9724 H       
  27 H27            0.0091     2.0755    -2.3686 H       
  28 H28           -0.0899     3.6256    -0.4107 H       
  29 H29            1.0478     2.5651     0.4621 H       
  30 H30           -2.2755    -0.6038     1.0452 H       
  31 H31           -0.4001    -3.9188     0.3902 H       
  32 H32           -1.8323    -3.2565     1.2139 H       
  33 H33           -1.1577     4.1941     0.7188 H       
  34 H34           -2.8678     4.1515     0.2270 H       
  35 H35           -2.4235     3.8692     1.9273 H       
  36 H36           -5.0644    -2.8426    -2.2099 H       
  37 H37           -4.3225    -4.4597    -2.0819 H       
  38 H38           -3.9440    -3.0790    -0.0173 H       
  39 H39           -3.0802    -1.8774    -1.0121 H       
  40 H40           -1.7412    -3.2781    -5.3497 H       
  41 H41            0.6409    -3.8898    -5.2844 H       
  42 H42            1.7202    -4.4151    -3.1361 H       
  43 H43            0.4209    -4.3354    -1.0509 H       
@<TRIPOS>BOND
   1    1    2 1
   2    1    5 1
   3    1   12 am
   4    2    6 2
   5    2    9 1
   6    3    4 1
   7    3    9 1
   8    3   24 1
   9    3   25 1
  10    4    5 1
  11    4   26 1
  12    4   27 1
  13    5   28 1
  14    5   29 1
  15    6    7 1
  16    6   30 1
  17    7    8 2
  18    7   10 1
  19    8    9 1
  20   10   11 1
  21   10   31 1
  22   10   32 1
  23   11   19 1
  24   11   18 1
  25   12   13 2
  26   12   14 1
  27   14   33 1
  28   14   34 1
  29   14   35 1
  30   15   16 1
  31   15   19 1
  32   15   36 1
  33   15   37 1
  34   16   17 1
  35   17   18 ar
  36   17   20 ar
  37   18   23 ar
  38   19   38 1
  39   19   39 1
  40   20   21 ar
  41   20   40 1
  42   21   22 ar
  43   21   41 1
  44   22   23 ar
  45   22   42 1
  46   23   43 1

#	End of record

