#	Name: ASD05790007
#	Creating user name:	WinNT
#	Creation time:	15. 06. 2019 21:03

#	Modifying user name:	WinNT
#	Modification time:	15. 06. 2019 21:03

#	Program:	/corina/corina34_cracker 3.40 0067  02.08.2006

@<TRIPOS>MOLECULE
ASD05790007
  48   52    0    0    0
SMALL
NO_CHARGES


@<TRIPOS>ATOM
   1 O1            -0.0945     1.8030    -0.5885 O.3     
   2 C2            -0.1406     0.5575    -1.3090 C.3     
   3 O3             1.0546     0.5810    -2.1114 O.3     
   4 C4             1.9372     1.3659    -1.4265 C.ar    
   5 C5             1.2284     2.1182    -0.4883 C.ar    
   6 C6             1.8999     3.0034     0.3439 C.ar    
   7 C7             3.2674     3.1441     0.2477 C.ar    
   8 C8             3.9826     2.3941    -0.6888 C.ar    
   9 C9             3.3074     1.5032    -1.5279 C.ar    
  10 C10            5.4470     2.5435    -0.7934 C.2     
  11 O11            6.0680     1.8898    -1.6092 O.2     
  12 N12            6.0960     3.4046     0.0152 N.am    
  13 C13            7.4908     3.4656    -0.0056 C.ar    
  14 C14            8.1350     4.6826     0.1879 C.ar    
  15 C15            9.5111     4.7462     0.1680 C.ar    
  16 C16           10.2591     3.5866    -0.0469 C.ar    
  17 C17            9.6090     2.3658    -0.2409 C.ar    
  18 C18            8.2328     2.3081    -0.2142 C.ar    
  19 O19           12.4719     4.7621     0.1039 O.3     
  20 C20           11.7348     3.6512    -0.0694 C.2     
  21 N21           12.5402     2.6342    -0.2616 N.2     
  22 C22           13.8133     3.0791    -0.2145 C.2     
  23 C23           13.7708     4.4157     0.0151 C.2     
  24 C24           14.9543     5.3395     0.1455 C.3     
  25 F25           15.2904     5.8474    -1.1139 F       
  26 F26           14.6289     6.3961     1.0028 F       
  27 F27           16.0422     4.6326     0.6688 F       
  28 C28           15.0368     2.2564    -0.3826 C.ar    
  29 C29           15.0704     0.9475     0.0943 C.ar    
  30 C30           16.2109     0.1868    -0.0647 C.ar    
  31 C31           17.3195     0.7215    -0.6961 C.ar    
  32 C32           17.2917     2.0203    -1.1714 C.ar    
  33 C33           16.1544     2.7880    -1.0229 C.ar    
  34 H34           -0.1215    -0.2854    -0.6182 H       
  35 H35           -1.0264     0.5143    -1.9427 H       
  36 H36            1.3488     3.5839     1.0688 H       
  37 H37            3.7861     3.8341     0.8967 H       
  38 H38            3.8570     0.9215    -2.2532 H       
  39 H39            5.5941     3.9819     0.6116 H       
  40 H40            7.5560     5.5791     0.3536 H       
  41 H41           10.0108     5.6918     0.3180 H       
  42 H42           10.1846     1.4673    -0.4073 H       
  43 H43            7.7296     1.3636    -0.3597 H       
  44 H44           14.2055     0.5292     0.5877 H       
  45 H45           16.2381    -0.8276     0.3048 H       
  46 H46           18.2101     0.1229    -0.8181 H       
  47 H47           18.1602     2.4329    -1.6633 H       
  48 H48           16.1322     3.8003    -1.3987 H       
@<TRIPOS>BOND
   1    1    2 1
   2    1    5 1
   3    2    3 1
   4    2   34 1
   5    2   35 1
   6    3    4 1
   7    4    5 ar
   8    4    9 ar
   9    5    6 ar
  10    6    7 ar
  11    6   36 1
  12    7    8 ar
  13    7   37 1
  14    8    9 ar
  15    8   10 1
  16    9   38 1
  17   10   11 2
  18   10   12 am
  19   12   13 1
  20   12   39 1
  21   13   14 ar
  22   13   18 ar
  23   14   15 ar
  24   14   40 1
  25   15   16 ar
  26   15   41 1
  27   16   17 ar
  28   16   20 1
  29   17   18 ar
  30   17   42 1
  31   18   43 1
  32   19   20 1
  33   19   23 1
  34   20   21 2
  35   21   22 1
  36   22   23 2
  37   22   28 1
  38   23   24 1
  39   24   25 1
  40   24   26 1
  41   24   27 1
  42   28   29 ar
  43   28   33 ar
  44   29   30 ar
  45   29   44 1
  46   30   31 ar
  47   30   45 1
  48   31   32 ar
  49   31   46 1
  50   32   33 ar
  51   32   47 1
  52   33   48 1

#	End of record

