#	Name: ASD03140001
#	Creating user name:	WinNT
#	Creation time:	15. 06. 2019 20:33

#	Modifying user name:	WinNT
#	Modification time:	15. 06. 2019 20:33

#	Program:	/corina/corina34_cracker 3.40 0067  02.08.2006

@<TRIPOS>MOLECULE
ASD03140001
  36   38    0    0    0
SMALL
NO_CHARGES


@<TRIPOS>ATOM
   1 C1             1.1157     1.0595     1.7965 C.ar    
   2 C2             0.7871    -0.1943     1.3144 C.ar    
   3 C3             1.4079    -0.6876     0.1814 C.ar    
   4 C4             2.3590     0.0708    -0.4723 C.ar    
   5 C5             2.6916     1.3308     0.0093 C.ar    
   6 C6             2.0655     1.8235     1.1475 C.ar    
   7 C7             3.5706     3.4970    -0.6217 C.ar    
   8 C8             4.7282     4.2627    -0.6819 C.ar    
   9 C9             4.6463     5.6404    -0.6602 C.ar    
  10 C10            3.4063     6.2613    -0.5781 C.ar    
  11 C11            2.2487     5.4957    -0.5184 C.ar    
  12 C12            2.3306     4.1179    -0.5396 C.ar    
  13 N13            3.6532     2.1007    -0.6495 N.pl3   
  14 N14            4.4438     9.9724    -1.0315 N.2     
  15 C15            3.2136    10.4245    -0.8876 C.2     
  16 N16            3.2599    11.7709    -1.0941 N.pl3   
  17 N17            4.6099    12.0538    -1.3667 N.2     
  18 N18            5.2466    10.9348    -1.3107 N.2     
  19 N19            3.3234     7.6579    -0.5552 N.pl3   
  20 C20            2.1054     8.2678    -0.4747 C.2     
  21 C21            2.0154     9.6253    -0.5648 C.2     
  22 C22            0.7585    10.2757    -0.3463 C.1     
  23 N23           -0.2386    10.7916    -0.1729 N.1     
  24 H24            0.6257     1.4435     2.6790 H       
  25 H25            0.0441    -0.7898     1.8241 H       
  26 H26            1.1489    -1.6672    -0.1924 H       
  27 H27            2.8440    -0.3153    -1.3567 H       
  28 H28            2.3214     2.8027     1.5243 H       
  29 H29            5.6922     3.7799    -0.7453 H       
  30 H30            5.5463     6.2356    -0.7066 H       
  31 H31            1.2847     5.9784    -0.4547 H       
  32 H32            1.4306     3.5227    -0.4936 H       
  33 H33            4.3783     1.6671    -1.1262 H       
  34 H34            2.5210    12.3985    -1.0604 H       
  35 H35            4.1317     8.1925    -0.5966 H       
  36 H36            1.2126     7.6752    -0.3395 H       
@<TRIPOS>BOND
   1    1    2 ar
   2    1    6 ar
   3    1   24 1
   4    2    3 ar
   5    2   25 1
   6    3    4 ar
   7    3   26 1
   8    4    5 ar
   9    4   27 1
  10    5    6 ar
  11    5   13 1
  12    6   28 1
  13    7    8 ar
  14    7   12 ar
  15    7   13 1
  16    8    9 ar
  17    8   29 1
  18    9   10 ar
  19    9   30 1
  20   10   11 ar
  21   10   19 1
  22   11   12 ar
  23   11   31 1
  24   12   32 1
  25   13   33 1
  26   14   15 2
  27   14   18 1
  28   15   16 1
  29   15   21 1
  30   16   17 1
  31   16   34 1
  32   17   18 2
  33   19   20 1
  34   19   35 1
  35   20   21 2
  36   20   36 1
  37   21   22 1
  38   22   23 3

#	End of record

