#	Name: ASD01140030
#	Creating user name:	WinNT
#	Creation time:	15. 06. 2019 18:59

#	Modifying user name:	WinNT
#	Modification time:	15. 06. 2019 18:59

#	Program:	/corina/corina34_cracker 3.40 0067  02.08.2006

@<TRIPOS>MOLECULE
ASD01140030
  27   26    0    0    0
SMALL
NO_CHARGES


@<TRIPOS>ATOM
   1 C1            -0.0187     1.5258     0.0104 C.3     
   2 C2             0.0021    -0.0041     0.0020 C.3     
   3 C3            -1.4333    -0.5336     0.0129 C.3     
   4 C4            -1.4126    -2.0635     0.0045 C.3     
   5 C5            -2.8479    -2.5931     0.0153 C.3     
   6 C6            -2.8272    -4.1229     0.0069 C.3     
   7 C7            -4.2626    -4.6525     0.0178 C.3     
   8 C8            -4.2418    -6.1823     0.0094 C.3     
   9 O9             1.3220     2.0204     0.0003 O.3     
  10 H10           -0.5459     1.8868    -0.8726 H       
  11 H11           -0.5289     1.8773     0.9072 H       
  12 H12            0.5123    -0.3556    -0.8948 H       
  13 H13            0.5293    -0.3651     0.8851 H       
  14 H14           -1.9435    -0.1821     0.9097 H       
  15 H15           -1.9605    -0.1726    -0.8702 H       
  16 H16           -0.9024    -2.4150    -0.8923 H       
  17 H17           -0.8854    -2.4246     0.8875 H       
  18 H18           -3.3581    -2.2415     0.9121 H       
  19 H19           -3.3751    -2.2320    -0.8677 H       
  20 H20           -2.3170    -4.4744    -0.8899 H       
  21 H21           -2.3000    -4.4840     0.8900 H       
  22 H22           -4.7728    -4.3010     0.9146 H       
  23 H23           -4.7898    -4.2914    -0.8653 H       
  24 H24           -3.7316    -6.5338    -0.8874 H       
  25 H25           -3.7146    -6.5434     0.8924 H       
  26 H26           -5.2644    -6.5596     0.0171 H       
  27 H27            1.3852     2.9853     0.0049 H       
@<TRIPOS>BOND
   1    1    2 1
   2    1    9 1
   3    1   10 1
   4    1   11 1
   5    2    3 1
   6    2   12 1
   7    2   13 1
   8    3    4 1
   9    3   14 1
  10    3   15 1
  11    4    5 1
  12    4   16 1
  13    4   17 1
  14    5    6 1
  15    5   18 1
  16    5   19 1
  17    6    7 1
  18    6   20 1
  19    6   21 1
  20    7    8 1
  21    7   22 1
  22    7   23 1
  23    8   24 1
  24    8   25 1
  25    8   26 1
  26    9   27 1

#	End of record

