#	Name: ASD04880117
#	Creating user name:	WinNT
#	Creation time:	15. 06. 2019 20:52

#	Modifying user name:	WinNT
#	Modification time:	15. 06. 2019 20:52

#	Program:	/corina/corina34_cracker 3.40 0067  02.08.2006

@<TRIPOS>MOLECULE
ASD04880117
  52   55    0    0    0
SMALL
NO_CHARGES


@<TRIPOS>ATOM
   1 C1            -0.0144     1.2121     0.0087 C.2     
   2 O2             0.0471    -0.0024     0.0311 O.2     
   3 N3             1.1164     1.9432    -0.0478 N.am    
   4 N4             1.1800     3.3278    -0.1900 N.2     
   5 C5             2.3787     3.7996    -0.2185 C.2     
   6 C6             3.3707     2.6663    -0.0844 C.3     
   7 C7             2.4854     1.4102     0.0370 C.3     
   8 C8             4.2617     2.5834    -1.3254 C.3     
   9 C9             4.2193     2.8423     1.1765 C.3     
  10 C10            2.7291     5.2244    -0.3605 C.ar    
  11 C11            1.7210     6.1855    -0.4770 C.ar    
  12 C12            2.0551     7.5198    -0.6099 C.ar    
  13 C13            3.3943     7.9046    -0.6275 C.ar    
  14 C14            4.3950     6.9512    -0.5119 C.ar    
  15 C15            4.0693     5.6181    -0.3732 C.ar    
  16 O16            3.7208     9.2176    -0.7588 O.3     
  17 C17            5.1124     9.5422    -0.7693 C.3     
  18 O18            1.0767     8.4575    -0.7239 O.3     
  19 C19           -0.2741     7.9921    -0.6986 C.3     
  20 O20           -5.0990     3.5734     0.0798 O.3     
  21 C21           -5.9574     2.4655     0.3989 C.3     
  22 C22           -5.1437     1.2466    -0.0964 C.3     
  23 C23           -3.7221     1.7709    -0.0265 C.ar    
  24 C24           -3.8046     3.1563     0.0844 C.ar    
  25 C25           -2.5053     1.1363    -0.0544 C.ar    
  26 C26           -1.3273     1.8849     0.0372 C.ar    
  27 C27           -1.4040     3.2750     0.1564 C.ar    
  28 C28           -2.6282     3.9008     0.1797 C.ar    
  29 H29            2.6461     0.9165     0.9954 H       
  30 H30            2.6815     0.7240    -0.7868 H       
  31 H31            4.8271     3.5095    -1.4293 H       
  32 H32            4.9519     1.7461    -1.2218 H       
  33 H33            3.6410     2.4355    -2.2091 H       
  34 H34            3.5688     2.8763     2.0504 H       
  35 H35            4.9097     2.0040     1.2698 H       
  36 H36            4.7841     3.7721     1.1075 H       
  37 H37            0.6834     5.8860    -0.4635 H       
  38 H38            5.4316     7.2539    -0.5261 H       
  39 H39            4.8504     4.8783    -0.2785 H       
  40 H40            5.5679     9.2193     0.1669 H       
  41 H41            5.5975     9.0350    -1.6033 H       
  42 H42            5.2334    10.6198    -0.8795 H       
  43 H43           -0.9524     8.8396    -0.7982 H       
  44 H44           -0.4352     7.2989    -1.5242 H       
  45 H45           -0.4653     7.4828     0.2460 H       
  46 H46           -6.1267     2.4056     1.4740 H       
  47 H47           -6.9028     2.5425    -0.1381 H       
  48 H48           -5.2772     0.3929     0.5681 H       
  49 H49           -5.4137     0.9877    -1.1202 H       
  50 H50           -2.4576     0.0613    -0.1464 H       
  51 H51           -0.4990     3.8597     0.2305 H       
  52 H52           -2.6796     4.9757     0.2719 H       
@<TRIPOS>BOND
   1    1    2 2
   2    1    3 am
   3    1   26 1
   4    3    4 1
   5    3    7 1
   6    4    5 2
   7    5    6 1
   8    5   10 1
   9    6    7 1
  10    6    8 1
  11    6    9 1
  12    7   29 1
  13    7   30 1
  14    8   31 1
  15    8   32 1
  16    8   33 1
  17    9   34 1
  18    9   35 1
  19    9   36 1
  20   10   11 ar
  21   10   15 ar
  22   11   12 ar
  23   11   37 1
  24   12   13 ar
  25   12   18 1
  26   13   14 ar
  27   13   16 1
  28   14   15 ar
  29   14   38 1
  30   15   39 1
  31   16   17 1
  32   17   40 1
  33   17   41 1
  34   17   42 1
  35   18   19 1
  36   19   43 1
  37   19   44 1
  38   19   45 1
  39   20   21 1
  40   20   24 1
  41   21   22 1
  42   21   46 1
  43   21   47 1
  44   22   23 1
  45   22   48 1
  46   22   49 1
  47   23   24 ar
  48   23   25 ar
  49   24   28 ar
  50   25   26 ar
  51   25   50 1
  52   26   27 ar
  53   27   28 ar
  54   27   51 1
  55   28   52 1

#	End of record

