#	Name: ASD08150384
#	Creating user name:	WinNT
#	Creation time:	15. 06. 2019 21:15

#	Modifying user name:	WinNT
#	Modification time:	15. 06. 2019 21:15

#	Program:	/corina/corina34_cracker 3.40 0067  02.08.2006

@<TRIPOS>MOLECULE
ASD08150384
  36   36    0    0    0
SMALL
NO_CHARGES


@<TRIPOS>ATOM
   1 N1            -0.0169     1.3925     0.0097 N.pl3   
   2 C2             0.0021    -0.0041     0.0020 C.ar    
   3 C3             1.2131    -0.6828    -0.0132 C.ar    
   4 C4             1.2277    -2.0684    -0.0203 C.ar    
   5 C5             0.0325    -2.7744    -0.0122 C.ar    
   6 C6            -1.1719    -2.0974     0.0029 C.ar    
   7 C7            -1.1909    -0.7160     0.0154 C.ar    
   8 O8             2.4114    -2.7358    -0.0356 O.3     
   9 Si9            3.0043    -3.0690     1.4468 Si      
  10 C10            3.2819    -1.4786     2.3765 C.3     
  11 C11            1.7878    -4.1288     2.3784 C.3     
  12 C12            4.6205    -3.9803     1.2787 C.3     
  13 C13            5.6196    -3.1100     0.5137 C.3     
  14 C14            5.1768    -4.2929     2.6693 C.3     
  15 C15            4.3926    -5.2864     0.5152 C.3     
  16 H16            0.8165     1.8888     0.0044 H       
  17 H17           -0.8634     1.8660     0.0163 H       
  18 H18            2.1420    -0.1319    -0.0198 H       
  19 H19            0.0441    -3.8543    -0.0181 H       
  20 H20           -2.1003    -2.6492     0.0089 H       
  21 H21           -2.1336    -0.1893     0.0317 H       
  22 H22            2.3363    -0.9455     2.4749 H       
  23 H23            3.6782    -1.7014     3.3672 H       
  24 H24            3.9937    -0.8586     1.8315 H       
  25 H25            1.6254    -5.0593     1.8344 H       
  26 H26            2.1841    -4.3515     3.3691 H       
  27 H27            0.8422    -3.5956     2.4767 H       
  28 H28            5.7820    -2.1795     1.0576 H       
  29 H29            6.5652    -3.6432     0.4153 H       
  30 H30            5.2233    -2.8873    -0.4770 H       
  31 H31            4.4650    -4.9129     3.2144 H       
  32 H32            6.1224    -4.8261     2.5710 H       
  33 H33            5.3392    -3.3624     3.2133 H       
  34 H34            3.9963    -5.0637    -0.4755 H       
  35 H35            5.3382    -5.8196     0.4169 H       
  36 H36            3.6808    -5.9064     1.0602 H       
@<TRIPOS>BOND
   1    1    2 1
   2    1   16 1
   3    1   17 1
   4    2    3 ar
   5    2    7 ar
   6    3    4 ar
   7    3   18 1
   8    4    5 ar
   9    4    8 1
  10    5    6 ar
  11    5   19 1
  12    6    7 ar
  13    6   20 1
  14    7   21 1
  15    8    9 1
  16    9   10 1
  17    9   11 1
  18    9   12 1
  19   10   22 1
  20   10   23 1
  21   10   24 1
  22   11   25 1
  23   11   26 1
  24   11   27 1
  25   12   13 1
  26   12   15 1
  27   12   14 1
  28   13   28 1
  29   13   29 1
  30   13   30 1
  31   14   31 1
  32   14   32 1
  33   14   33 1
  34   15   34 1
  35   15   35 1
  36   15   36 1

#	End of record

