#	Name: ASD01908112
#	Creating user name:	WinNT
#	Creation time:	15. 06. 2019 19:54

#	Modifying user name:	WinNT
#	Modification time:	15. 06. 2019 19:54

#	Program:	/corina/corina34_cracker 3.40 0067  02.08.2006

@<TRIPOS>MOLECULE
ASD01908112
  46   49    0    0    0
SMALL
NO_CHARGES


@<TRIPOS>ATOM
   1 S1            -0.0242     1.7576    -0.0304 S.3     
   2 C2             0.0013    -0.0032    -0.0100 C.2     
   3 N3             1.2320    -0.4152    -0.0147 N.2     
   4 C4             2.1768     0.5142    -0.0329 C.2     
   5 C5             1.7377     1.7833    -0.0444 C.2     
   6 N6            -1.1185    -0.8216     0.0090 N.pl3   
   7 C7            -2.3869    -0.2623     0.1294 C.ar    
   8 C8            -3.5112    -1.0759     0.0312 C.ar    
   9 C9            -4.7659    -0.5069     0.1532 C.ar    
  10 C10           -4.8546     0.8620     0.3703 C.ar    
  11 C11           -3.6971     1.6092     0.4573 C.ar    
  12 N12           -2.5130     1.0385     0.3420 N.ar    
  13 C13            2.6028     3.0170    -0.0661 C.3     
  14 N14            5.5306    -0.8308     0.3411 N.pl3   
  15 N15            5.7761     0.2794    -0.4760 N.2     
  16 C16            4.6405     0.8841    -0.7068 C.2     
  17 C17            3.6232     0.1752    -0.0397 C.2     
  18 C18            4.2064    -0.8794     0.5986 C.2     
  19 C19            6.5359    -1.7791     0.8272 C.3     
  20 C20            7.2977    -2.3470    -0.3425 C.ar    
  21 C21            8.4439    -1.7172    -0.7910 C.ar    
  22 C22            9.1441    -2.2359    -1.8630 C.ar    
  23 C23            8.6961    -3.3897    -2.4897 C.ar    
  24 C24            7.5458    -4.0198    -2.0377 C.ar    
  25 C25            6.8524    -3.5003    -0.9617 C.ar    
  26 O26            9.3829    -3.9017    -3.5448 O.3     
  27 C27            8.8635    -5.0920    -4.1409 C.3     
  28 H28           -1.0174    -1.7837    -0.0616 H       
  29 H29           -3.4057    -2.1372    -0.1385 H       
  30 H30           -5.6566    -1.1133     0.0810 H       
  31 H31           -5.8194     1.3372     0.4697 H       
  32 H32           -3.7615     2.6740     0.6257 H       
  33 H33            1.9699     3.9045    -0.0715 H       
  34 H34            3.2393     3.0300     0.8187 H       
  35 H35            3.2249     3.0089    -0.9611 H       
  36 H36            4.5060     1.7733    -1.3049 H       
  37 H37            3.7004    -1.6196     1.2008 H       
  38 H38            7.2267    -1.2653     1.4957 H       
  39 H39            6.0421    -2.5875     1.3663 H       
  40 H40            8.7920    -0.8188    -0.3031 H       
  41 H41           10.0391    -1.7433    -2.2133 H       
  42 H42            7.1950    -4.9181    -2.5239 H       
  43 H43            5.9594    -3.9931    -0.6065 H       
  44 H44            8.8338    -5.8879    -3.3967 H       
  45 H45            7.8558    -4.9031    -4.5111 H       
  46 H46            9.5045    -5.3930    -4.9694 H       
@<TRIPOS>BOND
   1    1    2 1
   2    1    5 1
   3    2    3 2
   4    2    6 1
   5    3    4 1
   6    4    5 2
   7    4   17 1
   8    5   13 1
   9    6    7 1
  10    6   28 1
  11    7    8 ar
  12    7   12 ar
  13    8    9 ar
  14    8   29 1
  15    9   10 ar
  16    9   30 1
  17   10   11 ar
  18   10   31 1
  19   11   12 ar
  20   11   32 1
  21   13   33 1
  22   13   34 1
  23   13   35 1
  24   14   15 1
  25   14   18 1
  26   14   19 1
  27   15   16 2
  28   16   17 1
  29   16   36 1
  30   17   18 2
  31   18   37 1
  32   19   20 1
  33   19   38 1
  34   19   39 1
  35   20   21 ar
  36   20   25 ar
  37   21   22 ar
  38   21   40 1
  39   22   23 ar
  40   22   41 1
  41   23   24 ar
  42   23   26 1
  43   24   25 ar
  44   24   42 1
  45   25   43 1
  46   26   27 1
  47   27   44 1
  48   27   45 1
  49   27   46 1

#	End of record

