#	Name: ASD01208924
#	Creating user name:	WinNT
#	Creation time:	15. 06. 2019 19:10

#	Modifying user name:	WinNT
#	Modification time:	15. 06. 2019 19:10

#	Program:	/corina/corina34_cracker 3.40 0067  02.08.2006

@<TRIPOS>MOLECULE
ASD01208924
  65   68    0    0    0
SMALL
NO_CHARGES


@<TRIPOS>ATOM
   1 S1             0.4947     1.7544    -0.0350 S.3     
   2 C2             0.6033    -0.0005    -0.1073 C.2     
   3 N3             1.8490    -0.3554    -0.1232 N.2     
   4 C4             2.7360     0.6434    -0.0831 C.2     
   5 C5             2.1998     1.8801    -0.0316 C.2     
   6 C6             4.1895     0.4113    -0.0937 C.2     
   7 O7             4.9556     1.3542    -0.1553 O.2     
   8 N8             4.6716    -0.8459    -0.0350 N.am    
   9 C9             6.1101    -1.0861    -0.1741 C.3     
  10 C10            3.7572    -1.9724     0.1677 C.3     
  11 C11           -1.7349    -0.3830    -0.1197 C.2     
  12 C12           -2.8867    -1.3087    -0.1558 C.ar    
  13 C13           -4.1888    -0.8069    -0.1335 C.ar    
  14 C14           -5.2651    -1.6776    -0.1680 C.ar    
  15 C15           -5.0506    -3.0473    -0.2246 C.ar    
  16 C16           -3.7579    -3.5506    -0.2470 C.ar    
  17 C17           -2.6753    -2.6863    -0.2181 C.ar    
  18 O18           -1.9210     0.8172    -0.0704 O.2     
  19 N19           -0.4782    -0.8697    -0.1413 N.am    
  20 O20           -3.5532    -4.8928    -0.3025 O.3     
  21 C21           -3.1531    -5.5243     0.8315 C.ar    
  22 C22           -3.0311    -6.9080     0.8477 C.ar    
  23 C23           -2.6254    -7.5523     1.9964 C.ar    
  24 C24           -2.3365    -6.8124     3.1448 C.ar    
  25 C25           -2.4600    -5.4217     3.1244 C.ar    
  26 C26           -2.8615    -4.7843     1.9704 C.ar    
  27 O27           -1.5919    -6.9143     5.5530 O.3     
  28 C28           -1.9017    -7.4994     4.3786 C.2     
  29 N29           -1.7451    -8.7933     4.5357 N.2     
  30 N30           -1.3573    -9.0307     5.7393 N.2     
  31 C31           -1.2519    -7.9078     6.3928 C.2     
  32 C32           -0.8258    -7.7514     7.8298 C.3     
  33 O33           -6.5335    -1.1899    -0.1459 O.3     
  34 C34           -8.8274    -1.4876     0.5540 C.3     
  35 C35           -7.5944    -2.1443    -0.0700 C.3     
  36 C36           -7.9368    -2.6391    -1.4766 C.3     
  37 O37           -9.3075    -0.4568    -0.3115 O.3     
  38 C38          -10.4636     0.2238     0.1807 C.3     
  39 H39            2.7590     2.8033     0.0055 H       
  40 H40            6.5803    -1.0547     0.8088 H       
  41 H41            6.2732    -2.0655    -0.6238 H       
  42 H42            6.5470    -0.3167    -0.8107 H       
  43 H43            3.3398    -2.2788    -0.7915 H       
  44 H44            4.3011    -2.8068     0.6104 H       
  45 H45            2.9502    -1.6698     0.8350 H       
  46 H46           -4.3568     0.2590    -0.0891 H       
  47 H47           -5.8922    -3.7235    -0.2511 H       
  48 H48           -1.6693    -3.0786    -0.2400 H       
  49 H49           -0.3297    -1.8274    -0.1805 H       
  50 H50           -3.2547    -7.4795    -0.0409 H       
  51 H51           -2.5314    -8.6281     2.0085 H       
  52 H52           -2.2378    -4.8461     4.0108 H       
  53 H53           -2.9537    -3.7084     1.9527 H       
  54 H54           -1.7027    -7.7959     8.4757 H       
  55 H55           -0.1384    -8.5549     8.0945 H       
  56 H56           -0.3281    -6.7903     7.9586 H       
  57 H57           -9.6066    -2.2369     0.6936 H       
  58 H58           -8.5605    -1.0568     1.5190 H       
  59 H59           -7.2811    -2.9875     0.5456 H       
  60 H60           -8.7460    -3.3671    -1.4187 H       
  61 H61           -8.2501    -1.7958    -2.0922 H       
  62 H62           -7.0584    -3.1069    -1.9211 H       
  63 H63          -11.2767    -0.4900     0.3126 H       
  64 H64          -10.2306     0.6901     1.1379 H       
  65 H65          -10.7653     0.9904    -0.5331 H       
@<TRIPOS>BOND
   1    1    2 1
   2    1    5 1
   3    2    3 2
   4    2   19 1
   5    3    4 1
   6    4    5 2
   7    4    6 1
   8    5   39 1
   9    6    7 2
  10    6    8 am
  11    8    9 1
  12    8   10 1
  13    9   40 1
  14    9   41 1
  15    9   42 1
  16   10   43 1
  17   10   44 1
  18   10   45 1
  19   11   12 1
  20   11   18 2
  21   11   19 am
  22   12   13 ar
  23   12   17 ar
  24   13   14 ar
  25   13   46 1
  26   14   15 ar
  27   14   33 1
  28   15   16 ar
  29   15   47 1
  30   16   17 ar
  31   16   20 1
  32   17   48 1
  33   19   49 1
  34   20   21 1
  35   21   22 ar
  36   21   26 ar
  37   22   23 ar
  38   22   50 1
  39   23   24 ar
  40   23   51 1
  41   24   25 ar
  42   24   28 1
  43   25   26 ar
  44   25   52 1
  45   26   53 1
  46   27   28 1
  47   27   31 1
  48   28   29 2
  49   29   30 1
  50   30   31 2
  51   31   32 1
  52   32   54 1
  53   32   55 1
  54   32   56 1
  55   33   35 1
  56   34   35 1
  57   34   37 1
  58   34   57 1
  59   34   58 1
  60   35   36 1
  61   35   59 1
  62   36   60 1
  63   36   61 1
  64   36   62 1
  65   37   38 1
  66   38   63 1
  67   38   64 1
  68   38   65 1

#	End of record

