#	Name: ASD03540111
#	Creating user name:	WinNT
#	Creation time:	15. 06. 2019 20:42

#	Modifying user name:	WinNT
#	Modification time:	15. 06. 2019 20:42

#	Program:	/corina/corina34_cracker 3.40 0067  02.08.2006

@<TRIPOS>MOLECULE
ASD03540111
  54   56    0    0    0
SMALL
NO_CHARGES


@<TRIPOS>ATOM
   1 C1            -0.0180     1.4744     0.0101 C.2     
   2 C2             0.0021    -0.0041     0.0020 C.ar    
   3 C3             1.2170    -0.6857    -0.0132 C.ar    
   4 C4             1.2270    -2.0788    -0.0203 C.ar    
   5 C5             2.5118    -2.8105    -0.0360 C.2     
   6 C6             0.0206    -2.7828    -0.0121 C.ar    
   7 C7            -1.1801    -2.1011     0.0030 C.ar    
   8 C8            -1.1970    -0.7204     0.0155 C.ar    
   9 O9             1.0263     2.0964     0.0035 O.2     
  10 N10           -1.1942     2.1323     0.0193 N.am    
  11 O11            3.5608    -2.1965    -0.0428 O.2     
  12 N12            2.5197    -4.1582    -0.0429 N.am    
  13 C13            3.7927    -4.8831    -0.0584 C.3     
  14 C14            3.5261    -6.3663    -0.0634 C.ar    
  15 C15            3.3927    -7.0397    -1.2625 C.ar    
  16 C16            3.1473    -8.4049    -1.2664 C.ar    
  17 C17            3.0364    -9.0909    -0.0654 C.ar    
  18 C18            3.1705    -8.4132     1.1307 C.ar    
  19 C19            3.4207    -7.0531     1.1318 C.ar    
  20 O20            3.0154    -9.0694    -2.4445 O.3     
  21 C21            2.7637   -10.4742    -2.3723 C.3     
  22 C22           -1.2141     3.5972     0.0274 C.3     
  23 C23           -2.6415     4.0801     0.0368 C.ar    
  24 C24           -3.2897     4.2948     1.2379 C.ar    
  25 C25           -4.6036     4.7394     1.2459 C.ar    
  26 C26           -5.2637     4.9673     0.0469 C.ar    
  27 C27           -4.6113     4.7512    -1.1512 C.ar    
  28 C28           -3.2996     4.3134    -1.1564 C.ar    
  29 O29           -5.2435     4.9509     2.4260 O.3     
  30 C30           -6.5955     5.4086     2.3580 C.3     
  31 H31            2.1469    -0.1366    -0.0199 H       
  32 H32            0.0269    -3.8628    -0.0180 H       
  33 H33           -2.1100    -2.6502     0.0090 H       
  34 H34           -2.1395    -0.1933     0.0318 H       
  35 H35           -2.0276     1.6360     0.0206 H       
  36 H36            1.6826    -4.6482    -0.0375 H       
  37 H37            4.3543    -4.6119    -0.9524 H       
  38 H38            4.3710    -4.6209     0.8275 H       
  39 H39            3.4792    -6.5035    -2.1960 H       
  40 H40            2.8450   -10.1538    -0.0658 H       
  41 H41            3.0838    -8.9466     2.0657 H       
  42 H42            3.5300    -6.5258     2.0679 H       
  43 H43            3.5855   -10.9642    -1.8501 H       
  44 H44            1.8337   -10.6494    -1.8314 H       
  45 H45            2.6799   -10.8806    -3.3802 H       
  46 H46           -0.7010     3.9626     0.9169 H       
  47 H47           -0.7094     3.9723    -0.8630 H       
  48 H48           -2.7739     4.1164     2.1698 H       
  49 H49           -6.2869     5.3131     0.0505 H       
  50 H50           -5.1248     4.9281    -2.0847 H       
  51 H51           -2.7897     4.1495    -2.0943 H       
  52 H52           -6.6301     6.3622     1.8311 H       
  53 H53           -7.2006     4.6761     1.8239 H       
  54 H54           -6.9868     5.5368     3.3673 H       
@<TRIPOS>BOND
   1    1    2 1
   2    1    9 2
   3    1   10 am
   4    2    3 ar
   5    2    8 ar
   6    3    4 ar
   7    3   31 1
   8    4    5 1
   9    4    6 ar
  10    5   11 2
  11    5   12 am
  12    6    7 ar
  13    6   32 1
  14    7    8 ar
  15    7   33 1
  16    8   34 1
  17   10   22 1
  18   10   35 1
  19   12   13 1
  20   12   36 1
  21   13   14 1
  22   13   37 1
  23   13   38 1
  24   14   15 ar
  25   14   19 ar
  26   15   16 ar
  27   15   39 1
  28   16   17 ar
  29   16   20 1
  30   17   18 ar
  31   17   40 1
  32   18   19 ar
  33   18   41 1
  34   19   42 1
  35   20   21 1
  36   21   43 1
  37   21   44 1
  38   21   45 1
  39   22   23 1
  40   22   46 1
  41   22   47 1
  42   23   24 ar
  43   23   28 ar
  44   24   25 ar
  45   24   48 1
  46   25   26 ar
  47   25   29 1
  48   26   27 ar
  49   26   49 1
  50   27   28 ar
  51   27   50 1
  52   28   51 1
  53   29   30 1
  54   30   52 1
  55   30   53 1
  56   30   54 1

#	End of record

