#	Name: ASD03330447
#	Creating user name:	WinNT
#	Creation time:	15. 06. 2019 20:37

#	Modifying user name:	WinNT
#	Modification time:	15. 06. 2019 20:37

#	Program:	/corina/corina34_cracker 3.40 0067  02.08.2006

@<TRIPOS>MOLECULE
ASD03330447
  52   55    0    0    0
SMALL
NO_CHARGES


@<TRIPOS>ATOM
   1 C1             0.3994     1.5935     0.1730 C.3     
   2 N2             0.2696     0.1312     0.1042 N.3     
   3 C3             0.6683    -0.3768    -1.2209 C.3     
   4 C4             2.0105     0.2171    -1.5628 C.2     
   5 N5             2.5497     1.2838    -0.9164 N.pl3   
   6 C6             1.8831     1.9833     0.1857 C.3     
   7 C7             2.8949    -0.1636    -2.5182 C.2     
   8 N8             3.9604     0.6666    -2.4453 N.2     
   9 C9             3.7583     1.5386    -1.4829 C.2     
  10 C10            4.6900     2.6163    -1.0834 C.ar    
  11 C11            2.7255    -1.2802    -3.4649 C.2     
  12 O12            1.7164    -1.9582    -3.4313 O.2     
  13 C13            3.5735    -2.7269    -5.2327 C.3     
  14 N14            3.6889    -1.5499    -4.3680 N.am    
  15 C15           -1.0960    -0.2925     0.4414 C.3     
  16 C16            5.7440     2.9779    -1.9229 C.ar    
  17 C17            6.6095     3.9837    -1.5446 C.ar    
  18 C18            6.4340     4.6329    -0.3356 C.ar    
  19 C19            5.3911     4.2787     0.5015 C.ar    
  20 C20            4.5148     3.2790     0.1317 C.ar    
  21 C21            2.3245    -2.6163    -6.1313 C.3     
  22 C22            2.7971    -2.0227    -7.4699 C.3     
  23 C23            4.3169    -1.7932    -7.3380 C.3     
  24 C24            4.7561    -2.7839    -6.2314 C.3     
  25 C25            3.5169    -4.0039    -4.3919 C.3     
  26 O26            4.6506    -4.0530    -3.5234 O.3     
  27 H27           -0.0855     2.0416    -0.6943 H       
  28 H28           -0.0786     1.9574     1.0825 H       
  29 H29            0.7431    -1.4638    -1.1915 H       
  30 H30           -0.0679    -0.0775    -1.9669 H       
  31 H31            1.9816     3.0604     0.0507 H       
  32 H32            2.3327     1.6883     1.1339 H       
  33 H33            4.4587    -0.9648    -4.4455 H       
  34 H34           -1.8051     0.2092    -0.2172 H       
  35 H35           -1.1833    -1.3716     0.3148 H       
  36 H36           -1.3129    -0.0294     1.4767 H       
  37 H37            5.8824     2.4713    -2.8666 H       
  38 H38            7.4258     4.2645    -2.1935 H       
  39 H39            7.1144     5.4193    -0.0438 H       
  40 H40            5.2596     4.7890     1.4442 H       
  41 H41            3.7008     3.0036     0.7858 H       
  42 H42            1.8920    -3.6038    -6.2927 H       
  43 H43            1.5893    -1.9573    -5.6694 H       
  44 H44            2.5941    -2.7220    -8.2809 H       
  45 H45            2.2914    -1.0755    -7.6576 H       
  46 H46            4.8203    -2.0228    -8.2772 H       
  47 H47            4.5229    -0.7667    -7.0347 H       
  48 H48            5.6786    -2.4492    -5.7571 H       
  49 H49            4.8714    -3.7893    -6.6365 H       
  50 H50            2.6033    -4.0074    -3.7974 H       
  51 H51            3.5255    -4.8729    -5.0499 H       
  52 H52            4.6802    -4.8379    -2.9592 H       
@<TRIPOS>BOND
   1    1    2 1
   2    1    6 1
   3    1   27 1
   4    1   28 1
   5    2    3 1
   6    2   15 1
   7    3    4 1
   8    3   29 1
   9    3   30 1
  10    4    5 1
  11    4    7 2
  12    5    6 1
  13    5    9 1
  14    6   31 1
  15    6   32 1
  16    7    8 1
  17    7   11 1
  18    8    9 2
  19    9   10 1
  20   10   16 ar
  21   10   20 ar
  22   11   12 2
  23   11   14 am
  24   13   14 1
  25   13   21 1
  26   13   25 1
  27   13   24 1
  28   14   33 1
  29   15   34 1
  30   15   35 1
  31   15   36 1
  32   16   17 ar
  33   16   37 1
  34   17   18 ar
  35   17   38 1
  36   18   19 ar
  37   18   39 1
  38   19   20 ar
  39   19   40 1
  40   20   41 1
  41   21   22 1
  42   21   42 1
  43   21   43 1
  44   22   23 1
  45   22   44 1
  46   22   45 1
  47   23   24 1
  48   23   46 1
  49   23   47 1
  50   24   48 1
  51   24   49 1
  52   25   26 1
  53   25   50 1
  54   25   51 1
  55   26   52 1

#	End of record

