#	Name: ASD09200053
#	Creating user name:	WinNT
#	Creation time:	15. 06. 2019 21:21

#	Modifying user name:	WinNT
#	Modification time:	15. 06. 2019 21:21

#	Program:	/corina/corina34_cracker 3.40 0067  02.08.2006

@<TRIPOS>MOLECULE
ASD09200053
  44   46    0    0    0
SMALL
NO_CHARGES


@<TRIPOS>ATOM
   1 C1            -0.1789     1.0563    -0.7017 C.ar    
   2 C2            -0.0053    -0.0166     0.1552 C.ar    
   3 C3            -1.0355    -0.4167     0.9897 C.ar    
   4 C4            -2.2415     0.2530     0.9717 C.ar    
   5 C5            -2.4227     1.3349     0.1111 C.ar    
   6 C6            -1.3803     1.7374    -0.7244 C.ar    
   7 C7            -3.7161     2.0580     0.0876 C.ar    
   8 C8            -4.9278     1.3524    -0.0479 C.ar    
   9 N9            -6.0646     2.0407    -0.0638 N.ar    
  10 C10           -6.0282     3.3628     0.0475 C.ar    
  11 N11           -4.8749     4.0071     0.1742 N.ar    
  12 N12           -3.7513     3.3801     0.1994 N.ar    
  13 N13           -7.2113     4.0807     0.0307 N.3     
  14 C14           -8.1281     3.6089     1.0763 C.3     
  15 C15           -9.3599     4.5157     1.1236 C.3     
  16 C16          -10.0564     4.4939    -0.2398 C.3     
  17 C17           -9.0658     4.9432    -1.3175 C.3     
  18 C18           -7.8424     4.0240    -1.2940 C.3     
  19 N19           -4.9342    -0.0264    -0.1623 N.pl3   
  20 C20            0.9467     1.4859    -1.6069 C.3     
  21 Cl21          -1.5968     3.0837    -1.7987 Cl      
  22 Cl22           1.5094    -0.8643     0.1837 Cl      
  23 C23           -9.7357     4.8670    -2.6909 C.3     
  24 N24          -10.5169     3.1303    -0.5341 N.3     
  25 H25           -0.8946    -1.2551     1.6559 H       
  26 H26           -3.0440    -0.0605     1.6229 H       
  27 H27           -8.4373     2.5875     0.8544 H       
  28 H28           -7.6218     3.6334     2.0413 H       
  29 H29          -10.0474     4.1560     1.8892 H       
  30 H30           -9.0529     5.5347     1.3591 H       
  31 H31          -10.9097     5.1720    -0.2239 H       
  32 H32           -8.7541     5.9689    -1.1204 H       
  33 H33           -7.1287     4.3499    -2.0506 H       
  34 H34           -8.1530     3.0007    -1.5049 H       
  35 H35           -4.0976    -0.5097    -0.2489 H       
  36 H36           -5.7752    -0.5097    -0.1561 H       
  37 H37            0.8752     0.9517    -2.5543 H       
  38 H38            0.8777     2.5585    -1.7885 H       
  39 H39            1.9014     1.2584    -1.1327 H       
  40 H40          -10.6090     5.5192    -2.7058 H       
  41 H41           -9.0301     5.1869    -3.4576 H       
  42 H42          -10.0454     3.8406    -2.8876 H       
  43 H43          -11.1682     2.8095     0.1666 H       
  44 H44          -10.9226     3.0768    -1.4564 H       
@<TRIPOS>BOND
   1    1    2 ar
   2    1   20 1
   3    1    6 ar
   4    2    3 ar
   5    2   22 1
   6    3    4 ar
   7    3   25 1
   8    4    5 ar
   9    4   26 1
  10    5    6 ar
  11    5    7 1
  12    6   21 1
  13    7    8 ar
  14    7   12 ar
  15    8    9 ar
  16    8   19 1
  17    9   10 ar
  18   10   11 ar
  19   10   13 1
  20   11   12 ar
  21   13   14 1
  22   13   18 1
  23   14   15 1
  24   14   27 1
  25   14   28 1
  26   15   16 1
  27   15   29 1
  28   15   30 1
  29   16   17 1
  30   16   24 1
  31   16   31 1
  32   17   18 1
  33   17   23 1
  34   17   32 1
  35   18   33 1
  36   18   34 1
  37   19   35 1
  38   19   36 1
  39   20   37 1
  40   20   38 1
  41   20   39 1
  42   23   40 1
  43   23   41 1
  44   23   42 1
  45   24   43 1
  46   24   44 1

#	End of record

