#	Name: ASD05740022
#	Creating user name:	WinNT
#	Creation time:	15. 06. 2019 21:02

#	Modifying user name:	WinNT
#	Modification time:	15. 06. 2019 21:02

#	Program:	/corina/corina34_cracker 3.40 0067  02.08.2006

@<TRIPOS>MOLECULE
ASD05740022
  54   55    0    0    0
SMALL
NO_CHARGES


@<TRIPOS>ATOM
   1 C1            -0.3486     1.6725     0.0363 C.3     
   2 C2             1.3358     7.6643     6.1155 C.ar    
   3 C3             0.0986     5.8625     7.0921 C.ar    
   4 C4             0.9203     4.9472     6.4243 C.ar    
   5 C5             1.9557     5.4082     5.5901 C.ar    
   6 C6             2.1549     6.7727     5.4426 C.ar    
   7 C7             0.7188     3.5045     6.5736 C.2     
   8 C8             1.5496     2.6672     5.8998 C.2     
   9 C9             2.5706     3.1983     5.0851 C.2     
  10 O10            2.7468     4.5219     4.9483 O.3     
  11 C11            1.3809     1.1748     6.0230 C.3     
  12 C12            0.5341     0.6692     4.8835 C.ar    
  13 C13           -0.8284     0.5023     5.0451 C.ar    
  14 O14            3.3086     2.4365     4.4863 O.2     
  15 C15            0.2873    -0.0945     2.6331 C.ar    
  16 C16           -1.0705    -0.2406     2.8763 C.ar    
  17 N17           -1.5794     0.0601     4.0555 N.ar    
  18 O18            1.5319     8.9997     5.9702 O.3     
  19 N19            0.8226    -0.4138     1.3808 N.am    
  20 S20           -0.0520    -0.1168     0.0063 S.o2    
  21 O21           -1.2668    -0.8271     0.2037 O.2     
  22 O22            0.8324    -0.4580    -1.0523 O.2     
  23 C23           -0.3802     2.9633     7.4514 C.3     
  24 C24            2.6014     9.4092     5.1156 C.3     
  25 C25            0.3084     7.2018     6.9358 C.ar    
  26 C26           -0.5761     8.1872     7.6554 C.3     
  27 C27            1.1120     0.3712     3.6581 C.ar    
  28 F28            2.4394     0.5278     3.4620 F       
  29 H29            0.6057     2.1991     0.0331 H       
  30 H30           -0.9252     1.9600    -0.8429 H       
  31 H31           -0.9046     1.9336     0.9368 H       
  32 H32           -0.6966     5.5099     7.7322 H       
  33 H33            2.9459     7.1389     4.8050 H       
  34 H34            2.3589     0.6946     5.9898 H       
  35 H35            0.8933     0.9412     6.9695 H       
  36 H36           -1.2844     0.7369     5.9956 H       
  37 H37           -1.7178    -0.6041     2.0919 H       
  38 H38            1.7062    -0.8091     1.3176 H       
  39 H39           -0.9288     3.7918     7.8992 H       
  40 H40           -1.0605     2.3592     6.8511 H       
  41 H41            0.0540     2.3472     8.2389 H       
  42 H42            2.6480    10.4979     5.0881 H       
  43 H43            3.5430     9.0147     5.4974 H       
  44 H44            2.4289     9.0274     4.1093 H       
  45 H45           -1.4327     8.4324     7.0275 H       
  46 H46           -0.9246     7.7475     8.5899 H       
  47 H47           -0.0108     9.0943     7.8691 H       
  48 C48            9.0702    18.1672    15.4582 C.3     
  49 N49            9.0901    16.7023    15.4501 N.2     
  50 C50            9.6308    16.0898    14.5041 C.1     
  51 O51           10.1534    15.4979    13.5899 O.2     
  52 H52           10.0928    18.5445    15.4505 H       
  53 H53            8.5430    18.5283    14.5751 H       
  54 H54            8.5600    18.5187    16.3550 H       
@<TRIPOS>BOND
   1    1   20 1
   2    1   29 1
   3    1   30 1
   4    1   31 1
   5    2   18 1
   6    2   25 ar
   7    2    6 ar
   8    3    4 ar
   9    3   25 ar
  10    3   32 1
  11    4    5 ar
  12    4    7 1
  13    5    6 ar
  14    5   10 1
  15    6   33 1
  16    7    8 2
  17    7   23 1
  18    8    9 1
  19    8   11 1
  20    9   10 1
  21    9   14 2
  22   11   12 1
  23   11   34 1
  24   11   35 1
  25   12   13 ar
  26   12   27 ar
  27   13   17 ar
  28   13   36 1
  29   15   16 ar
  30   15   19 1
  31   15   27 ar
  32   16   17 ar
  33   16   37 1
  34   18   24 1
  35   19   20 am
  36   19   38 1
  37   20   21 2
  38   20   22 2
  39   23   39 1
  40   23   40 1
  41   23   41 1
  42   24   42 1
  43   24   43 1
  44   24   44 1
  45   25   26 1
  46   26   45 1
  47   26   46 1
  48   26   47 1
  49   27   28 1
  50   48   49 1
  51   48   52 1
  52   48   53 1
  53   48   54 1
  54   49   50 2
  55   50   51 2

#	End of record

