#	Name: ASD09116365
#	Creating user name:	WinNT
#	Creation time:	15. 06. 2019 21:21

#	Modifying user name:	WinNT
#	Modification time:	15. 06. 2019 21:21

#	Program:	/corina/corina34_cracker 3.40 0067  02.08.2006

@<TRIPOS>MOLECULE
ASD09116365
  58   63    0    0    0
SMALL
NO_CHARGES


@<TRIPOS>ATOM
   1 N1            -0.0298     1.4185     0.1464 N.2     
   2 N2            -0.0212     0.0197     0.2688 N.pl3   
   3 C3             1.2223     1.8079     0.1170 C.2     
   4 N4             2.0153     0.7343     0.2139 N.2     
   5 C5             1.2798    -0.3529     0.3063 C.2     
   6 N6             1.7520    -1.6464     0.4217 N.pl3   
   7 C7            -1.1339    -0.8205     0.3386 C.ar    
   8 N8             1.6572     3.1283     0.0030 N.pl3   
   9 C9             3.0217     3.4263     0.0973 C.ar    
  10 C10            3.5427     4.5229    -0.5800 C.ar    
  11 C11            3.8550     2.6304     0.8719 C.ar    
  12 C12            5.2032     2.9190     0.9613 C.ar    
  13 C13            5.7217     4.0079     0.2736 C.ar    
  14 C14            4.8888     4.8092    -0.4798 C.ar    
  15 N15           -1.0322    -2.0869    -0.0365 N.ar    
  16 N16           -2.0280    -2.8991    -0.0013 N.ar    
  17 C17           -3.2237    -2.5132     0.4143 C.ar    
  18 C18           -3.4204    -1.1997     0.8499 C.ar    
  19 C19           -2.3534    -0.3272     0.8094 C.ar    
  20 C20           -4.3856    -3.4320     0.4047 C.ar    
  21 C21           -5.5820    -3.0006    -0.1705 C.ar    
  22 C22           -5.6440    -1.6419    -0.8127 C.3     
  23 C23           -5.7429    -0.5354     0.2339 C.3     
  24 C24           -4.7625    -0.7831     1.3772 C.3     
  25 C25           -4.2996    -4.7038     0.9602 C.ar    
  26 C26           -5.4082    -5.5281     0.9560 C.ar    
  27 C27           -6.5979    -5.0889     0.4040 C.ar    
  28 C28           -6.6851    -3.8270    -0.1580 C.ar    
  29 O29            7.0582     4.2710     0.3317 O.3     
  30 C30            7.7918     4.0178    -0.8705 C.3     
  31 C31            7.7633     5.2225    -1.7875 C.3     
  32 C32            6.3750     5.5454    -2.3199 C.3     
  33 C33            5.4579     6.0233    -1.1877 C.3     
  34 H34            2.7072    -1.8143     0.4399 H       
  35 H35            1.1283    -2.3867     0.4844 H       
  36 H36            1.0142     3.8400    -0.1415 H       
  37 H37            2.8979     5.1467    -1.1812 H       
  38 H38            3.4484     1.7842     1.4059 H       
  39 H39            5.8512     2.3001     1.5641 H       
  40 H40           -2.4585     0.7012     1.1220 H       
  41 H41           -4.7453    -1.4884    -1.4100 H       
  42 H42           -6.5164    -1.5951    -1.4646 H       
  43 H43           -5.5143     0.4223    -0.2337 H       
  44 H44           -6.7576    -0.5068     0.6312 H       
  45 H45           -5.1546    -1.5701     2.0214 H       
  46 H46           -4.6509     0.1323     1.9584 H       
  47 H47           -3.3707    -5.0456     1.3924 H       
  48 H48           -5.3456    -6.5176     1.3842 H       
  49 H49           -7.4637    -5.7344     0.4112 H       
  50 H50           -7.6174    -3.4897    -0.5863 H       
  51 H51            8.8261     3.7856    -0.6166 H       
  52 H52            7.3506     3.1649    -1.3863 H       
  53 H53            8.1371     6.0874    -1.2395 H       
  54 H54            8.4262     5.0343    -2.6321 H       
  55 H55            6.4529     6.3295    -3.0730 H       
  56 H56            5.9489     4.6519    -2.7761 H       
  57 H57            4.6447     6.6189    -1.6025 H       
  58 H58            6.0312     6.6244    -0.4819 H       
@<TRIPOS>BOND
   1    1    2 1
   2    1    3 2
   3    2    7 1
   4    2    5 1
   5    3    4 1
   6    3    8 1
   7    4    5 2
   8    5    6 1
   9    6   34 1
  10    6   35 1
  11    7   15 ar
  12    7   19 ar
  13    8    9 1
  14    8   36 1
  15    9   10 ar
  16    9   11 ar
  17   10   14 ar
  18   10   37 1
  19   11   12 ar
  20   11   38 1
  21   12   13 ar
  22   12   39 1
  23   13   14 ar
  24   13   29 1
  25   14   33 1
  26   15   16 ar
  27   16   17 ar
  28   17   18 ar
  29   17   20 1
  30   18   19 ar
  31   18   24 1
  32   19   40 1
  33   20   21 ar
  34   20   25 ar
  35   21   22 1
  36   21   28 ar
  37   22   23 1
  38   22   41 1
  39   22   42 1
  40   23   24 1
  41   23   43 1
  42   23   44 1
  43   24   45 1
  44   24   46 1
  45   25   26 ar
  46   25   47 1
  47   26   27 ar
  48   26   48 1
  49   27   28 ar
  50   27   49 1
  51   28   50 1
  52   29   30 1
  53   30   31 1
  54   30   51 1
  55   30   52 1
  56   31   32 1
  57   31   53 1
  58   31   54 1
  59   32   33 1
  60   32   55 1
  61   32   56 1
  62   33   57 1
  63   33   58 1

#	End of record

