#	Name: ASD01880001
#	Creating user name:	WinNT
#	Creation time:	15. 06. 2019 19:39

#	Modifying user name:	WinNT
#	Modification time:	15. 06. 2019 19:39

#	Program:	/corina/corina34_cracker 3.40 0067  02.08.2006

@<TRIPOS>MOLECULE
ASD01880001
  47   49    0    0    0
SMALL
NO_CHARGES


@<TRIPOS>ATOM
   1 C1            -0.0167     1.3784     0.0096 C.ar    
   2 C2             0.0021    -0.0041     0.0020 C.ar    
   3 C3             1.2074    -0.6814    -0.0127 C.ar    
   4 C4             2.3963     0.0221    -0.0203 C.ar    
   5 C5             2.3802     1.4093    -0.0132 C.ar    
   6 C6             1.1695     2.0865     0.0021 C.ar    
   7 O7             3.5484     2.1036    -0.0202 O.3     
   8 C8             3.4557     3.5296    -0.0122 C.3     
   9 C9             4.8619     4.1322    -0.0218 C.3     
  10 C10            4.8019     5.6717     0.1125 C.3     
  11 N11            5.9014     6.1061    -0.7670 N.pl3   
  12 C12            6.2533     5.0543    -1.5568 C.2     
  13 O13            5.4834     3.9615    -1.3086 O.3     
  14 C14            6.6988     7.1616    -1.0841 C.2     
  15 C15            7.5430     6.7356    -2.0648 C.2     
  16 N16            7.2447     5.4370    -2.3309 N.2     
  17 C17            8.5901     7.5382    -2.7189 C.2     
  18 N18            9.3586     6.9885    -3.6800 N.am    
  19 O19            8.7614     8.6972    -2.3919 O.2     
  20 C20            6.6561     8.5370    -0.4696 C.3     
  21 C21           -1.2934    -0.7740     0.0103 C.3     
  22 C22           -2.1122    -0.4078    -1.2292 C.3     
  23 C23           -0.9949    -2.2746    -0.0006 C.3     
  24 C24           -2.0883    -0.4213     1.2691 C.3     
  25 H25           -0.9595     1.9052     0.0170 H       
  26 H26            1.2194    -1.7613    -0.0179 H       
  27 H27            3.3375    -0.5074    -0.0315 H       
  28 H28            1.1543     3.1664     0.0073 H       
  29 H29            2.9113     3.8632    -0.8956 H       
  30 H30            2.9274     3.8543     0.8842 H       
  31 H31            5.4738     3.6974     0.7686 H       
  32 H32            3.8458     6.0551    -0.2437 H       
  33 H33            4.9847     5.9786     1.1423 H       
  34 H34            9.2220     6.0643    -3.9408 H       
  35 H35           10.0484     7.5172    -4.1109 H       
  36 H36            7.3234     8.5710     0.3917 H       
  37 H37            6.9758     9.2741    -1.2061 H       
  38 H38            5.6384     8.7606    -0.1497 H       
  39 H39           -1.5459    -0.6591    -2.1260 H       
  40 H40           -3.0492    -0.9647    -1.2232 H       
  41 H41           -2.3248     0.6612    -1.2214 H       
  42 H42           -0.4116    -2.5354     0.8824 H       
  43 H43           -1.9319    -2.8314     0.0054 H       
  44 H44           -0.4286    -2.5259    -0.8974 H       
  45 H45           -2.3009     0.6478     1.2769 H       
  46 H46           -3.0252    -0.9781     1.2751 H       
  47 H47           -1.5049    -0.6821     2.1522 H       
@<TRIPOS>BOND
   1    1    2 ar
   2    1    6 ar
   3    1   25 1
   4    2    3 ar
   5    2   21 1
   6    3    4 ar
   7    3   26 1
   8    4    5 ar
   9    4   27 1
  10    5    6 ar
  11    5    7 1
  12    6   28 1
  13    7    8 1
  14    8    9 1
  15    8   29 1
  16    8   30 1
  17    9   10 1
  18    9   13 1
  19    9   31 1
  20   10   11 1
  21   10   32 1
  22   10   33 1
  23   11   12 1
  24   11   14 1
  25   12   13 1
  26   12   16 2
  27   14   15 2
  28   14   20 1
  29   15   16 1
  30   15   17 1
  31   17   18 am
  32   17   19 2
  33   18   34 1
  34   18   35 1
  35   20   36 1
  36   20   37 1
  37   20   38 1
  38   21   22 1
  39   21   23 1
  40   21   24 1
  41   22   39 1
  42   22   40 1
  43   22   41 1
  44   23   42 1
  45   23   43 1
  46   23   44 1
  47   24   45 1
  48   24   46 1
  49   24   47 1

#	End of record

