#	Name: ASD06170143
#	Creating user name:	WinNT
#	Creation time:	15. 06. 2019 21:05

#	Modifying user name:	WinNT
#	Modification time:	15. 06. 2019 21:05

#	Program:	/corina/corina34_cracker 3.40 0067  02.08.2006

@<TRIPOS>MOLECULE
ASD06170143
  81   85    0    0    0
SMALL
NO_CHARGES


@<TRIPOS>ATOM
   1 C1            -1.4298    -1.8710     2.9088 C.ar    
   2 C2            -0.9222    -2.1443     1.6356 C.ar    
   3 C3             0.3987    -2.6087     1.5016 C.ar    
   4 C4             1.1589    -2.7809     2.6470 C.ar    
   5 C5             0.5948    -2.4913     3.8804 C.ar    
   6 N6            -0.6362    -2.0597     3.9848 N.ar    
   7 C7            -2.7563    -1.4125     2.8714 C.2     
   8 C8            -3.3003    -1.3159     1.6531 C.2     
   9 S9            -2.1529    -1.8156     0.4227 S.3     
  10 C10           -4.6730    -0.8595     1.3826 C.2     
  11 O11           -5.3994    -0.5373     2.3034 O.2     
  12 N12           -5.1252    -0.7985     0.1144 N.am    
  13 O13            0.9170    -2.8824     0.2773 O.3     
  14 C14            2.2242    -3.2508     0.2052 C.ar    
  15 C15            2.5813    -4.5826     0.3791 C.ar    
  16 C16            3.9099    -4.9566     0.3052 C.ar    
  17 C17            4.8868    -4.0010     0.0573 C.ar    
  18 C18            4.5283    -2.6710    -0.1161 C.ar    
  19 C19            3.1997    -2.2985    -0.0474 C.ar    
  20 C20            6.5685    -5.5810    -0.5258 C.2     
  21 O21            5.7101    -6.3026    -0.9985 O.2     
  22 N22            6.2331    -4.3788    -0.0172 N.am    
  23 N23            9.7973    -7.2373    -0.7887 N.pl3   
  24 N24           10.2046    -6.0516    -0.1701 N.am    
  25 C25            9.1198    -5.2727     0.0220 C.2     
  26 C26            7.9691    -6.0200    -0.5095 C.2     
  27 C27            8.4659    -7.2160    -0.9897 C.2     
  28 C28           11.5167    -5.7275     0.1900 C.ar    
  29 C29           12.5436    -5.8517    -0.7368 C.ar    
  30 C30           13.8381    -5.5303    -0.3781 C.ar    
  31 C31           14.1122    -5.0854     0.9021 C.ar    
  32 C32           13.0921    -4.9611     1.8274 C.ar    
  33 C33           11.7946    -5.2753     1.4735 C.ar    
  34 O34            9.0974    -4.1692     0.5345 O.2     
  35 C35            7.6547    -8.3121    -1.6312 C.3     
  36 C36           10.6877    -8.3372    -1.1678 C.3     
  37 C37           10.7095    -9.3835    -0.0517 C.3     
  38 C38           11.7325   -10.4695    -0.3906 C.3     
  39 C39           11.0958    -8.7131     1.2683 C.3     
  40 O40            9.4137    -9.9725     0.0745 O.3     
  41 F41            1.6302    -5.5112     0.6206 F       
  42 C42           -6.4917    -0.3442    -0.1550 C.3     
  43 C43           -6.7495    -0.3690    -1.6629 C.3     
  44 N44           -8.1197     0.0865    -1.9330 N.3     
  45 C45           -8.2846     1.5013    -1.5735 C.3     
  46 C46           -8.4846    -0.1459    -3.3368 C.3     
  47 H47            2.1766    -3.1362     2.5803 H       
  48 H48            1.1848    -2.6249     4.7750 H       
  49 H49           -3.3017    -1.1551     3.7673 H       
  50 H50           -4.5459    -1.0555    -0.6200 H       
  51 H51            4.1882    -5.9913     0.4406 H       
  52 H52            5.2879    -1.9279    -0.3089 H       
  53 H53            2.9212    -1.2644    -0.1866 H       
  54 H54            6.9244    -3.7753     0.2972 H       
  55 H55           12.3302    -6.1994    -1.7367 H       
  56 H56           14.6371    -5.6270    -1.0983 H       
  57 H57           15.1253    -4.8347     1.1801 H       
  58 H58           13.3095    -4.6136     2.8266 H       
  59 H59           10.9977    -5.1737     2.1952 H       
  60 H60            7.3132    -9.0076    -0.8646 H       
  61 H61            6.7928    -7.8775    -2.1375 H       
  62 H62            8.2715    -8.8441    -2.3556 H       
  63 H63           10.3271    -8.7957    -2.0886 H       
  64 H64           11.6952    -7.9517    -1.3241 H       
  65 H65           12.7210   -10.0202    -0.4869 H       
  66 H66           11.7481   -11.2149     0.4045 H       
  67 H67           11.4574   -10.9471    -1.3310 H       
  68 H68           10.3670    -7.9394     1.5098 H       
  69 H69           11.1114    -9.4585     2.0635 H       
  70 H70           12.0842    -8.2639     1.1721 H       
  71 H71            9.1037   -10.4164    -0.7267 H       
  72 H72           -7.1996    -1.0050     0.3455 H       
  73 H73           -6.6169     0.6721     0.2184 H       
  74 H74           -6.0416     0.2917    -2.1634 H       
  75 H75           -6.6243    -1.3854    -2.0363 H       
  76 H76           -7.5930     2.1078    -2.1582 H       
  77 H77           -9.3079     1.8126    -1.7835 H       
  78 H78           -8.0753     1.6331    -0.5119 H       
  79 H79           -8.4208    -1.2115    -3.5572 H       
  80 H80           -9.5037     0.2004    -3.5095 H       
  81 H81           -7.8003     0.4009    -3.9855 H       
@<TRIPOS>BOND
   1    1    2 ar
   2    1    6 ar
   3    1    7 1
   4    2    3 ar
   5    2    9 1
   6    3    4 ar
   7    3   13 1
   8    4    5 ar
   9    4   47 1
  10    5    6 ar
  11    5   48 1
  12    7    8 2
  13    7   49 1
  14    8    9 1
  15    8   10 1
  16   10   11 2
  17   10   12 am
  18   12   42 1
  19   12   50 1
  20   13   14 1
  21   14   15 ar
  22   14   19 ar
  23   15   16 ar
  24   15   41 1
  25   16   17 ar
  26   16   51 1
  27   17   18 ar
  28   17   22 1
  29   18   19 ar
  30   18   52 1
  31   19   53 1
  32   20   21 2
  33   20   22 am
  34   20   26 1
  35   22   54 1
  36   23   24 1
  37   23   27 1
  38   23   36 1
  39   24   25 am
  40   24   28 1
  41   25   26 1
  42   25   34 2
  43   26   27 2
  44   27   35 1
  45   28   29 ar
  46   28   33 ar
  47   29   30 ar
  48   29   55 1
  49   30   31 ar
  50   30   56 1
  51   31   32 ar
  52   31   57 1
  53   32   33 ar
  54   32   58 1
  55   33   59 1
  56   35   60 1
  57   35   61 1
  58   35   62 1
  59   36   37 1
  60   36   63 1
  61   36   64 1
  62   37   38 1
  63   37   39 1
  64   37   40 1
  65   38   65 1
  66   38   66 1
  67   38   67 1
  68   39   68 1
  69   39   69 1
  70   39   70 1
  71   40   71 1
  72   42   43 1
  73   42   72 1
  74   42   73 1
  75   43   44 1
  76   43   74 1
  77   43   75 1
  78   44   45 1
  79   44   46 1
  80   45   76 1
  81   45   77 1
  82   45   78 1
  83   46   79 1
  84   46   80 1
  85   46   81 1

#	End of record

