#	Name: ASD07301007
#	Creating user name:	WinNT
#	Creation time:	15. 06. 2019 21:10

#	Modifying user name:	WinNT
#	Modification time:	15. 06. 2019 21:10

#	Program:	/corina/corina34_cracker 3.40 0067  02.08.2006

@<TRIPOS>MOLECULE
ASD07301007
  34   36    0    0    0
SMALL
NO_CHARGES


@<TRIPOS>ATOM
   1 C1            -0.0178     1.4650     0.0101 C.2     
   2 C2             0.0021    -0.0041     0.0020 C.2     
   3 C3             1.2770    -0.6367    -0.0136 C.2     
   4 C4             2.3783     0.1589    -0.0198 C.2     
   5 N5             2.2581     1.5098    -0.0114 N.pl3   
   6 N6             1.1290     2.1160     0.0026 N.2     
   7 C7            -1.2973     2.1983     0.0202 C.2     
   8 O8            -2.3476     1.5875     0.0218 O.2     
   9 O9            -1.3015     3.5459     0.0275 O.3     
  10 O10           -1.0316    -0.6549     0.0088 O.2     
  11 O11            1.3890    -1.9916    -0.0215 O.3     
  12 C12            2.7112    -2.5332    -0.0370 C.3     
  13 O13            4.7704     4.8556     2.0226 O.3     
  14 C14            3.7715     4.3274     2.9150 C.3     
  15 O15            2.8767     3.6131     2.0418 O.3     
  16 C16            3.6358     3.2357     0.9721 C.ar    
  17 C17            4.7995     3.9990     0.9601 C.ar    
  18 C18            3.4256     2.2804    -0.0179 C.ar    
  19 C19            4.3776     2.0932    -1.0126 C.ar    
  20 C20            5.5302     2.8535    -1.0188 C.ar    
  21 C21            5.7428     3.8037    -0.0362 C.ar    
  22 F22            4.3524     3.4563     3.8430 F       
  23 F23            3.0973     5.3649     3.5679 F       
  24 C24           -2.5973     4.2010     0.0372 C.3     
  25 H25            3.3608    -0.2895    -0.0312 H       
  26 H26            2.6579    -3.6219    -0.0420 H       
  27 H27            3.2336    -2.1910    -0.9304 H       
  28 H28            3.2509    -2.1999     0.8494 H       
  29 H29            4.2162     1.3520    -1.7814 H       
  30 H30            6.2683     2.7057    -1.7932 H       
  31 H31            6.6461     4.3957    -0.0460 H       
  32 H32           -3.1576     3.9112    -0.8517 H       
  33 H33           -3.1491     3.9016     0.9282 H       
  34 H34           -2.4578     5.2821     0.0424 H       
@<TRIPOS>BOND
   1    1    2 1
   2    1    6 2
   3    1    7 1
   4    2    3 1
   5    2   10 2
   6    3    4 2
   7    3   11 1
   8    4    5 1
   9    4   25 1
  10    5    6 1
  11    5   18 1
  12    7    8 2
  13    7    9 1
  14    9   24 1
  15   11   12 1
  16   12   26 1
  17   12   27 1
  18   12   28 1
  19   13   14 1
  20   13   17 1
  21   14   15 1
  22   14   22 1
  23   14   23 1
  24   15   16 1
  25   16   17 ar
  26   16   18 ar
  27   17   21 ar
  28   18   19 ar
  29   19   20 ar
  30   19   29 1
  31   20   21 ar
  32   20   30 1
  33   21   31 1
  34   24   32 1
  35   24   33 1
  36   24   34 1

#	End of record

