#	Name: ASD08070154
#	Creating user name:	WinNT
#	Creation time:	15. 06. 2019 21:14

#	Modifying user name:	WinNT
#	Modification time:	15. 06. 2019 21:14

#	Program:	/corina/corina34_cracker 3.40 0067  02.08.2006

@<TRIPOS>MOLECULE
ASD08070154
  39   41    0    0    0
SMALL
NO_CHARGES


@<TRIPOS>ATOM
   1 C1            -0.0166     1.3694     0.0096 C.2     
   2 C2             0.0021    -0.0041     0.0020 C.2     
   3 N3            -2.3989    -0.4631     0.0221 N.am    
   4 C4            -1.1378    -0.9385     0.0075 C.2     
   5 C5            -2.7434    -2.0973     2.2700 C.ar    
   6 C6            -3.8240    -1.8108     1.4447 C.ar    
   7 C7            -3.5318    -1.3919     0.0275 C.3     
   8 C8            -2.9416    -2.4932     3.5766 C.ar    
   9 C9            -4.2261    -2.6091     4.0724 C.ar    
  10 C10           -5.3057    -2.3236     3.2543 C.ar    
  11 C11           -5.1046    -1.9194     1.9354 C.ar    
  12 C12           -6.3212    -1.6088     1.1035 C.3     
  13 C13           -5.9701    -1.6085    -0.3829 C.3     
  14 C14           -4.7482    -0.7062    -0.5913 C.3     
  15 O15           -0.9404    -2.1385    -0.0012 O.2     
  16 C16            1.4404    -0.3122    -0.0134 C.2     
  17 N17            2.0391     0.8419    -0.0129 N.2     
  18 O18            1.2592     1.7624    -0.0005 O.3     
  19 C19            2.0830    -1.6752    -0.0264 C.3     
  20 O20           -6.5698    -2.4381     3.7400 O.3     
  21 C21           -6.7070    -2.8568     5.0994 C.3     
  22 H22           -0.8897     2.0049     0.0173 H       
  23 H23           -2.5563     0.4940     0.0291 H       
  24 H24           -1.7385    -2.0135     1.8834 H       
  25 H25           -3.2775    -2.2725    -0.5624 H       
  26 H26           -2.0949    -2.7124     4.2102 H       
  27 H27           -4.3872    -2.9215     5.0936 H       
  28 H28           -7.0870    -2.3613     1.2918 H       
  29 H29           -6.7061    -0.6277     1.3820 H       
  30 H30           -5.7363    -2.6233    -0.7050 H       
  31 H31           -6.8122    -1.2250    -0.9589 H       
  32 H32           -4.9145     0.2551    -0.1053 H       
  33 H33           -4.5812    -0.5549    -1.6578 H       
  34 H34            2.2281    -1.9987    -1.0571 H       
  35 H35            3.0479    -1.6269     0.4784 H       
  36 H36            1.4379    -2.3860     0.4901 H       
  37 H37           -6.2551    -3.8409     5.2238 H       
  38 H38           -6.2060    -2.1418     5.7521 H       
  39 H39           -7.7644    -2.9070     5.3592 H       
@<TRIPOS>BOND
   1    1    2 2
   2    1   18 1
   3    1   22 1
   4    2   16 1
   5    2    4 1
   6    3    4 am
   7    3    7 1
   8    3   23 1
   9    4   15 2
  10    5    6 ar
  11    5    8 ar
  12    5   24 1
  13    6    7 1
  14    6   11 ar
  15    7   14 1
  16    7   25 1
  17    8    9 ar
  18    8   26 1
  19    9   10 ar
  20    9   27 1
  21   10   11 ar
  22   10   20 1
  23   11   12 1
  24   12   13 1
  25   12   28 1
  26   12   29 1
  27   13   14 1
  28   13   30 1
  29   13   31 1
  30   14   32 1
  31   14   33 1
  32   16   17 2
  33   16   19 1
  34   17   18 1
  35   19   34 1
  36   19   35 1
  37   19   36 1
  38   20   21 1
  39   21   37 1
  40   21   38 1
  41   21   39 1

#	End of record

