#	Name: ASD01880290
#	Creating user name:	WinNT
#	Creation time:	15. 06. 2019 19:40

#	Modifying user name:	WinNT
#	Modification time:	15. 06. 2019 19:40

#	Program:	/corina/corina34_cracker 3.40 0067  02.08.2006

@<TRIPOS>MOLECULE
ASD01880290
  39   40    0    0    0
SMALL
NO_CHARGES


@<TRIPOS>ATOM
   1 C1            -0.0164     1.3606     0.0095 C.2     
   2 C2             0.0021    -0.0041     0.0020 C.2     
   3 N3            -1.1566    -0.7092     0.0088 N.am    
   4 C4            -2.3471    -0.0814     0.0230 C.2     
   5 C5            -2.4079     1.3233     0.0311 C.2     
   6 C6            -1.2519     2.0432     0.0309 C.2     
   7 O7            -3.3783    -0.7343     0.0285 O.2     
   8 C8            -1.1117    -2.1735     0.0000 C.3     
   9 C9            -1.0830    -2.6837     1.4177 C.ar    
  10 C10           -2.2554    -2.7585     2.1503 C.ar    
  11 C11           -2.2282    -3.2274     3.4528 C.ar    
  12 C12           -1.0299    -3.6204     4.0205 C.ar    
  13 C13            0.1410    -3.5449     3.2868 C.ar    
  14 C14            0.1129    -3.0823     1.9848 C.ar    
  15 Cl15          -0.9946    -4.2079     5.6537 Cl      
  16 C16            1.2565     2.1233     0.0015 C.ar    
  17 C17            1.5826     2.9253    -1.0909 C.ar    
  18 C18            2.7659     3.6331    -1.0964 C.ar    
  19 C19            3.6332     3.5474    -0.0136 C.ar    
  20 C20            3.3099     2.7482     1.0767 C.ar    
  21 C21            2.1249     2.0432     1.0887 C.ar    
  22 N22            4.8314     4.2648    -0.0214 N.pl3   
  23 F23           -3.4253    -2.3738     1.5948 F       
  24 H24            0.9471    -0.5268    -0.0098 H       
  25 H25           -3.3632     1.8270     0.0422 H       
  26 H26           -1.2801     3.1229     0.0370 H       
  27 H27           -1.9949    -2.5611    -0.5078 H       
  28 H28           -0.2158    -2.5064    -0.5241 H       
  29 H29           -3.1421    -3.2858     4.0253 H       
  30 H30            1.0766    -3.8520     3.7304 H       
  31 H31            1.0273    -3.0237     1.4130 H       
  32 H32            0.9092     2.9919    -1.9325 H       
  33 H33            3.0192     4.2544    -1.9427 H       
  34 H34            3.9852     2.6830     1.9170 H       
  35 H35            1.8741     1.4224     1.9361 H       
  36 H36            5.0579     4.8224    -0.7821 H       
  37 H37            5.4372     4.2054     0.7338 H       
  38 Cl38          10.4372     9.8224    10.6537 Cl      
  39 H39           10.4372    11.1924    10.6537 H       
@<TRIPOS>BOND
   1    1    2 2
   2    1   16 1
   3    1    6 1
   4    2    3 1
   5    2   24 1
   6    3    4 am
   7    3    8 1
   8    4    5 1
   9    4    7 2
  10    5    6 2
  11    5   25 1
  12    6   26 1
  13    8    9 1
  14    8   27 1
  15    8   28 1
  16    9   10 ar
  17    9   14 ar
  18   10   11 ar
  19   10   23 1
  20   11   12 ar
  21   11   29 1
  22   12   13 ar
  23   12   15 1
  24   13   14 ar
  25   13   30 1
  26   14   31 1
  27   16   17 ar
  28   16   21 ar
  29   17   18 ar
  30   17   32 1
  31   18   19 ar
  32   18   33 1
  33   19   20 ar
  34   19   22 1
  35   20   21 ar
  36   20   34 1
  37   21   35 1
  38   22   36 1
  39   22   37 1
  40   38   39 1

#	End of record

