#	Name: ASD01840272
#	Creating user name:	WinNT
#	Creation time:	15. 06. 2019 19:37

#	Modifying user name:	WinNT
#	Modification time:	15. 06. 2019 19:37

#	Program:	/corina/corina34_cracker 3.40 0067  02.08.2006

@<TRIPOS>MOLECULE
ASD01840272
  39   42    0    0    0
SMALL
NO_CHARGES


@<TRIPOS>ATOM
   1 C1             0.6812    -1.3520     0.7569 C.3     
   2 C2             0.2406    -2.7485     1.1129 C.2     
   3 N3             0.1401    -3.7135     0.2211 N.2     
   4 C4            -0.2469    -4.8688     0.6455 C.2     
   5 S5            -0.5326    -4.8125     2.3303 S.3     
   6 C6            -0.0746    -3.1113     2.3599 C.2     
   7 C7            -0.0459    -2.2220     3.5761 C.3     
   8 N8            -1.3514    -1.5782     3.7413 N.pl3   
   9 C9            -1.5688    -0.6996     4.8101 C.2     
  10 N10           -0.6892    -0.3703     5.7191 N.2     
  11 N11           -1.2761     0.5263     6.6159 N.pl3   
  12 C12           -0.6245     1.1342     7.7786 C.3     
  13 C13           -2.5826     0.7383     6.2103 C.2     
  14 C14           -2.7789    -0.0125     5.0853 C.2     
  15 S15           -4.4139     0.1857     4.4730 S.3     
  16 C16           -4.8482     1.3074     5.7526 C.ar    
  17 N17           -5.9956     1.9446     5.9950 N.ar    
  18 N18           -6.1402     2.7390     6.9890 N.ar    
  19 C19           -5.1686     2.9890     7.8490 C.ar    
  20 C20           -5.4061     3.9347     8.9981 C.3     
  21 C21           -3.9380     2.3858     7.6973 C.ar    
  22 C22           -2.8158     2.6558     8.6663 C.3     
  23 C23           -3.7646     1.5007     6.6116 C.ar    
  24 H24            1.7655    -1.2805     0.8412 H       
  25 H25            0.3806    -1.1259    -0.2661 H       
  26 H26            0.2160    -0.6395     1.4382 H       
  27 H27           -0.3721    -5.7447     0.0262 H       
  28 H28            0.1782    -2.8208     4.4589 H       
  29 H29            0.7222    -1.4589     3.4501 H       
  30 H30           -2.0653    -1.7604     3.1103 H       
  31 H31           -0.2673     2.1299     7.5156 H       
  32 H32           -1.3395     1.2094     8.5978 H       
  33 H33            0.2183     0.5157     8.0875 H       
  34 H34           -5.7767     3.3762     9.8577 H       
  35 H35           -4.4708     4.4285     9.2615 H       
  36 H36           -6.1426     4.6833     8.7062 H       
  37 H37           -2.7784     1.8596     9.4098 H       
  38 H38           -1.8701     2.6928     8.1257 H       
  39 H39           -2.9874     3.6101     9.1641 H       
@<TRIPOS>BOND
   1    1    2 1
   2    1   24 1
   3    1   25 1
   4    1   26 1
   5    2    6 2
   6    2    3 1
   7    3    4 2
   8    4    5 1
   9    4   27 1
  10    5    6 1
  11    6    7 1
  12    7    8 1
  13    7   28 1
  14    7   29 1
  15    8    9 1
  16    8   30 1
  17    9   14 1
  18    9   10 2
  19   10   11 1
  20   11   12 1
  21   11   13 1
  22   12   31 1
  23   12   32 1
  24   12   33 1
  25   13   23 1
  26   13   14 2
  27   14   15 1
  28   15   16 1
  29   16   23 ar
  30   16   17 ar
  31   17   18 ar
  32   18   19 ar
  33   19   20 1
  34   19   21 ar
  35   20   34 1
  36   20   35 1
  37   20   36 1
  38   21   22 1
  39   21   23 ar
  40   22   37 1
  41   22   38 1
  42   22   39 1

#	End of record

