#	Name: ASD04882576
#	Creating user name:	WinNT
#	Creation time:	15. 06. 2019 20:55

#	Modifying user name:	WinNT
#	Modification time:	15. 06. 2019 20:55

#	Program:	/corina/corina34_cracker 3.40 0067  02.08.2006

@<TRIPOS>MOLECULE
ASD04882576
  78   84    0    0    0
SMALL
NO_CHARGES


@<TRIPOS>ATOM
   1 C1            -0.3634     1.3208     0.3814 C.ar    
   2 C2            -0.3607    -0.0269     0.0113 C.ar    
   3 C3            -1.5563    -0.6697    -0.2886 C.ar    
   4 C4            -2.7472     0.0187    -0.2227 C.ar    
   5 C5            -2.7571     1.3666     0.1468 C.ar    
   6 C6            -1.5570     2.0138     0.4544 C.ar    
   7 N7             0.8413    -0.7266    -0.0576 N.3     
   8 C8             0.8391    -1.8694     0.8663 C.3     
   9 C9             1.1172    -1.1653    -1.4327 C.3     
  10 C10            2.4807    -1.8589    -1.4802 C.3     
  11 N11            2.4786    -3.0017    -0.5563 N.3     
  12 C12            2.2026    -2.5629     0.8188 C.3     
  13 C13           -4.0329     2.1040     0.2170 C.2     
  14 O14           -4.1047     3.2376    -0.2170 O.2     
  15 N15           -5.1190     1.5211     0.7621 N.am    
  16 N16            0.8424     1.9673     0.6839 N.am    
  17 C17            3.6842    -3.7035    -0.6254 C.ar    
  18 C18            3.6898    -5.0429    -0.9930 C.ar    
  19 C19            4.8839    -5.7338    -1.0608 C.ar    
  20 C20            6.0726    -5.0937    -0.7628 C.ar    
  21 C21            6.0707    -3.7601    -0.3965 C.ar    
  22 C22            4.8811    -3.0619    -0.3322 C.ar    
  23 C23            2.3945    -5.7416    -1.3170 C.3     
  24 C24            0.8349     3.1001     1.4142 C.2     
  25 C25            2.0875     3.8469     1.6288 C.2     
  26 O26           -0.2054     3.5061     1.8961 O.2     
  27 N27            3.3184     3.5144     1.1537 N.2     
  28 C28            4.1693     4.4128     1.5501 C.2     
  29 O29            3.5285     5.3368     2.2798 O.3     
  30 C30            2.2294     5.0020     2.3345 C.2     
  31 C31            5.6439     4.4153     1.2390 C.3     
  32 C32            6.2022     5.6163     0.4729 C.3     
  33 C33            6.5163     5.4446     1.9605 C.3     
  34 C34           -5.0685     0.1228     1.2087 C.3     
  35 C35           -5.4834     0.0610     2.6837 C.3     
  36 C36           -6.8209     0.7755     2.8570 C.3     
  37 C37           -6.7937     2.2285     2.3907 C.3     
  38 C38           -6.3679     2.2772     0.9234 C.3     
  39 C39           -8.0183    -0.0212     2.3189 C.3     
  40 O40           -8.6837     0.3835     3.5334 O.3     
  41 C41           -7.4459     0.5855     4.2464 C.3     
  42 H42           -1.5511    -1.7112    -0.5744 H       
  43 H43           -3.6743    -0.4833    -0.4569 H       
  44 H44           -1.5615     3.0552     0.7405 H       
  45 H45            0.6452    -1.5175     1.8796 H       
  46 H46            0.0621    -2.5744     0.5709 H       
  47 H47            0.3433    -1.8623    -1.7543 H       
  48 H48            1.1260    -0.3001    -2.0956 H       
  49 H49            2.6746    -2.2108    -2.4935 H       
  50 H50            3.2578    -1.1539    -1.1848 H       
  51 H51            2.9766    -1.8659     1.1404 H       
  52 H52            2.1938    -3.4281     1.4817 H       
  53 H53            1.6825     1.5996     0.3677 H       
  54 H54            4.8889    -6.7753    -1.3465 H       
  55 H55            7.0048    -5.6365    -0.8159 H       
  56 H56            7.0010    -3.2632    -0.1640 H       
  57 H57            4.8803    -2.0204    -0.0464 H       
  58 H58            2.1826    -5.6390    -2.3812 H       
  59 H59            2.4784    -6.7984    -1.0634 H       
  60 H60            1.5855    -5.2928    -0.7406 H       
  61 H61            1.4472     5.5428     2.8464 H       
  62 H62            6.0826     3.4390     1.0334 H       
  63 H63            7.0085     5.4300    -0.2365 H       
  64 H64            5.5030     6.4045     0.1939 H       
  65 H65            6.0237     6.1198     2.6601 H       
  66 H66            7.5293     5.1454     2.2297 H       
  67 H67           -5.7546    -0.4769     0.6106 H       
  68 H68           -4.0538    -0.2597     1.0982 H       
  69 H69           -5.5839    -0.9800     2.9907 H       
  70 H70           -4.7265     0.5511     3.2960 H       
  71 H71           -7.7871     2.6642     2.4981 H       
  72 H72           -6.0807     2.7912     2.9933 H       
  73 H73           -6.2108     3.3131     0.6227 H       
  74 H74           -7.1432     1.8279     0.3027 H       
  75 H75           -8.4573     0.3989     1.4140 H       
  76 H76           -7.8395    -1.0943     2.2501 H       
  77 H77           -7.0902    -0.3000     4.7731 H       
  78 H78           -7.4332     1.4844     4.8628 H       
@<TRIPOS>BOND
   1    1    2 ar
   2    1   16 1
   3    1    6 ar
   4    2    3 ar
   5    2    7 1
   6    3    4 ar
   7    3   42 1
   8    4    5 ar
   9    4   43 1
  10    5    6 ar
  11    5   13 1
  12    6   44 1
  13    7    8 1
  14    7    9 1
  15    8   12 1
  16    8   45 1
  17    8   46 1
  18    9   10 1
  19    9   47 1
  20    9   48 1
  21   10   11 1
  22   10   49 1
  23   10   50 1
  24   11   12 1
  25   11   17 1
  26   12   51 1
  27   12   52 1
  28   13   14 2
  29   13   15 am
  30   15   34 1
  31   15   38 1
  32   16   24 am
  33   16   53 1
  34   17   18 ar
  35   17   22 ar
  36   18   19 ar
  37   18   23 1
  38   19   20 ar
  39   19   54 1
  40   20   21 ar
  41   20   55 1
  42   21   22 ar
  43   21   56 1
  44   22   57 1
  45   23   58 1
  46   23   59 1
  47   23   60 1
  48   24   25 1
  49   24   26 2
  50   25   27 1
  51   25   30 2
  52   27   28 2
  53   28   29 1
  54   28   31 1
  55   29   30 1
  56   30   61 1
  57   31   32 1
  58   31   33 1
  59   31   62 1
  60   32   33 1
  61   32   63 1
  62   32   64 1
  63   33   65 1
  64   33   66 1
  65   34   35 1
  66   34   67 1
  67   34   68 1
  68   35   36 1
  69   35   69 1
  70   35   70 1
  71   36   37 1
  72   36   39 1
  73   36   41 1
  74   37   38 1
  75   37   71 1
  76   37   72 1
  77   38   73 1
  78   38   74 1
  79   39   40 1
  80   39   75 1
  81   39   76 1
  82   40   41 1
  83   41   77 1
  84   41   78 1

#	End of record

