#	Name: ASD01200449
#	Creating user name:	WinNT
#	Creation time:	15. 06. 2019 19:09

#	Modifying user name:	WinNT
#	Modification time:	15. 06. 2019 19:09

#	Program:	/corina/corina34_cracker 3.40 0067  02.08.2006

@<TRIPOS>MOLECULE
ASD01200449
  58   60    0    0    0
SMALL
NO_CHARGES


@<TRIPOS>ATOM
   1 C1            -0.2729     1.4336     0.2436 C.2     
   2 C2            -0.2120    -0.0717     0.2072 C.3     
   3 C3             1.2490    -0.5216     0.1448 C.3     
   4 O4             0.7475     2.0803     0.2220 O.2     
   5 O5            -1.4610     2.0562     0.2946 O.3     
   6 N6             1.3083    -1.9850     0.1093 N.am    
   7 C7             2.5010    -2.6099     0.0525 C.2     
   8 C8             2.5608    -4.0867     0.0168 C.ar    
   9 C9             3.7944    -4.7370    -0.0421 C.ar    
  10 C10            3.8433    -6.1154    -0.0747 C.ar    
  11 C11            2.6729    -6.8529    -0.0498 C.ar    
  12 C12            1.4468    -6.2144     0.0085 C.ar    
  13 C13            1.3842    -4.8368     0.0475 C.ar    
  14 O14            3.5276    -1.9594     0.0308 O.2     
  15 C15            2.7338    -8.3582    -0.0867 C.3     
  16 C16            2.5552    -8.9107     1.3288 C.3     
  17 C17            2.7410   -10.4293     1.3107 C.3     
  18 C18            2.5625   -10.9819     2.7262 C.3     
  19 O19            1.6915    -8.8566    -0.9276 O.3     
  20 C20            1.9543    -9.9902    -1.6303 C.ar    
  21 C21            3.2167   -10.5627    -1.5750 C.ar    
  22 C22            3.4856   -11.7157    -2.2897 C.ar    
  23 C23            2.4903   -12.3011    -3.0632 C.ar    
  24 C24            1.2259   -11.7267    -3.1173 C.ar    
  25 C25            0.9583   -10.5766    -2.3975 C.ar    
  26 N26            2.7622   -13.4717    -3.7898 N.pl3   
  27 N27            3.9851   -14.1539    -3.8267 N.2     
  28 C28            3.8499   -15.1945    -4.6095 C.2     
  29 C29            2.5386   -15.2088    -5.0958 C.2     
  30 C30            1.8884   -14.1428    -4.5728 C.2     
  31 C31            1.9514   -16.2332    -6.0323 C.3     
  32 F32            2.9250   -17.1861    -6.3508 F       
  33 F33            0.8668   -16.8636    -5.4131 F       
  34 F34            1.5175   -15.6009    -7.2024 F       
  35 F35            0.2573   -12.2944    -3.8687 F       
  36 F36            4.7154   -12.2725    -2.2363 F       
  37 H37           -0.6787    -0.4761     1.1054 H       
  38 H38           -0.7421    -0.4356    -0.6730 H       
  39 H39            1.7157    -0.1172    -0.7534 H       
  40 H40            1.7791    -0.1577     1.0250 H       
  41 H41           -1.4496     3.0229     0.3165 H       
  42 H42            0.4891    -2.5041     0.1267 H       
  43 H43            4.7087    -4.1625    -0.0623 H       
  44 H44            4.7971    -6.6198    -0.1202 H       
  45 H45            0.5369    -6.7959     0.0277 H       
  46 H46            0.4266    -4.3397     0.0975 H       
  47 H47            3.7002    -8.6731    -0.4805 H       
  48 H48            3.2963    -8.4619     1.9902 H       
  49 H49            1.5546    -8.6714     1.6887 H       
  50 H50            2.0000   -10.8782     0.6493 H       
  51 H51            3.7417   -10.6686     0.9508 H       
  52 H52            2.6949   -12.0637     2.7133 H       
  53 H53            3.3035   -10.5330     3.3876 H       
  54 H54            1.5618   -10.7425     3.0861 H       
  55 H55            3.9899   -10.1076    -0.9738 H       
  56 H56           -0.0253   -10.1322    -2.4361 H       
  57 H57            4.6185   -15.9172    -4.8403 H       
  58 H58            0.8574   -13.8753    -4.7509 H       
@<TRIPOS>BOND
   1    1    2 1
   2    1    4 2
   3    1    5 1
   4    2    3 1
   5    2   37 1
   6    2   38 1
   7    3    6 1
   8    3   39 1
   9    3   40 1
  10    5   41 1
  11    6    7 am
  12    6   42 1
  13    7    8 1
  14    7   14 2
  15    8    9 ar
  16    8   13 ar
  17    9   10 ar
  18    9   43 1
  19   10   11 ar
  20   10   44 1
  21   11   12 ar
  22   11   15 1
  23   12   13 ar
  24   12   45 1
  25   13   46 1
  26   15   16 1
  27   15   19 1
  28   15   47 1
  29   16   17 1
  30   16   48 1
  31   16   49 1
  32   17   18 1
  33   17   50 1
  34   17   51 1
  35   18   52 1
  36   18   53 1
  37   18   54 1
  38   19   20 1
  39   20   21 ar
  40   20   25 ar
  41   21   22 ar
  42   21   55 1
  43   22   23 ar
  44   22   36 1
  45   23   24 ar
  46   23   26 1
  47   24   25 ar
  48   24   35 1
  49   25   56 1
  50   26   27 1
  51   26   30 1
  52   27   28 2
  53   28   29 1
  54   28   57 1
  55   29   30 2
  56   29   31 1
  57   30   58 1
  58   31   32 1
  59   31   33 1
  60   31   34 1

#	End of record

