#	Name: ASD07930023
#	Creating user name:	WinNT
#	Creation time:	15. 06. 2019 21:11

#	Modifying user name:	WinNT
#	Modification time:	15. 06. 2019 21:11

#	Program:	/corina/corina34_cracker 3.40 0067  02.08.2006

@<TRIPOS>MOLECULE
ASD07930023
  48   51    0    0    0
SMALL
NO_CHARGES


@<TRIPOS>ATOM
   1 C1            -0.0167     1.3807     0.0096 C.2     
   2 N2             0.0021    -0.0041     0.0020 N.am    
   3 N3             1.2023     2.0320     0.0015 N.pl3   
   4 C4             2.2545     1.5040    -0.8785 C.3     
   5 C5             2.4301    -0.0046    -0.6026 C.3     
   6 C6             1.1260    -0.6674    -0.3006 C.2     
   7 C7             3.6038     2.1081    -0.4355 C.3     
   8 N8             4.2432     1.1401     0.4737 N.3     
   9 C9             3.3350    -0.0129     0.6493 C.3     
  10 C10            4.5423     1.7266     1.6926 C.ar    
  11 N11            5.1232     0.9988     2.6345 N.ar    
  12 C12            5.4231     1.5273     3.8096 C.ar    
  13 C13            5.1214     2.8607     4.0484 C.ar    
  14 C14            4.5128     3.5932     3.0389 C.ar    
  15 N15            4.2453     3.0030     1.8855 N.ar    
  16 F16            5.4131     3.4327     5.2370 F       
  17 C17            6.0835     0.6917     4.8758 C.3     
  18 C18            4.1659     5.0442     3.2520 C.3     
  19 C19            1.9625     1.7955    -2.3280 C.ar    
  20 C20            0.9679     3.1867    -4.0036 C.ar    
  21 C21            1.4274     2.3308    -4.9870 C.ar    
  22 C22            2.1489     1.2037    -4.6405 C.ar    
  23 C23            2.4167     0.9363    -3.3109 C.ar    
  24 N24           -1.1378     2.0425     0.0186 N.2     
  25 C25           -1.2164    -0.7493     0.3279 C.3     
  26 O26            1.0819    -1.8787    -0.3312 O.2     
  27 C27            1.2357     2.9192    -2.6741 C.ar    
  28 H28            1.3581     2.8114     0.5575 H       
  29 H29            2.9183    -0.4925    -1.4462 H       
  30 H30            4.2388     2.2739    -1.3058 H       
  31 H31            3.4343     3.0500     0.0861 H       
  32 H32            2.7352     0.1114     1.5509 H       
  33 H33            3.9056    -0.9403     0.6980 H       
  34 H34            7.1665     0.7631     4.7745 H       
  35 H35            5.7859     1.0558     5.8591 H       
  36 H36            5.7760    -0.3481     4.7650 H       
  37 H37            5.0058     5.6674     2.9451 H       
  38 H38            3.2882     5.2989     2.6579 H       
  39 H39            3.9527     5.2156     4.3071 H       
  40 H40            0.4042     4.0673    -4.2744 H       
  41 H41            1.2181     2.5397    -6.0257 H       
  42 H42            2.5079     0.5350    -5.4088 H       
  43 H43            2.9812     0.0562    -3.0402 H       
  44 H44           -1.9825     1.5657     0.0200 H       
  45 H45           -2.0230    -0.0493     0.5458 H       
  46 H46           -1.4972    -1.3749    -0.5194 H       
  47 H47           -1.0355    -1.3781     1.1996 H       
  48 H48            0.8767     3.5880    -1.9058 H       
@<TRIPOS>BOND
   1    1    2 1
   2    1    3 1
   3    1   24 2
   4    2   25 1
   5    2    6 am
   6    3    4 1
   7    3   28 1
   8    4    7 1
   9    4   19 1
  10    4    5 1
  11    5    6 1
  12    5    9 1
  13    5   29 1
  14    6   26 2
  15    7    8 1
  16    7   30 1
  17    7   31 1
  18    8    9 1
  19    8   10 1
  20    9   32 1
  21    9   33 1
  22   10   11 ar
  23   10   15 ar
  24   11   12 ar
  25   12   13 ar
  26   12   17 1
  27   13   14 ar
  28   13   16 1
  29   14   15 ar
  30   14   18 1
  31   17   34 1
  32   17   35 1
  33   17   36 1
  34   18   37 1
  35   18   38 1
  36   18   39 1
  37   19   27 ar
  38   19   23 ar
  39   20   21 ar
  40   20   27 ar
  41   20   40 1
  42   21   22 ar
  43   21   41 1
  44   22   23 ar
  45   22   42 1
  46   23   43 1
  47   24   44 1
  48   25   45 1
  49   25   46 1
  50   25   47 1
  51   27   48 1

#	End of record

