#	Name: ASD00960019
#	Creating user name:	WinNT
#	Creation time:	15. 06. 2019 18:53

#	Modifying user name:	WinNT
#	Modification time:	15. 06. 2019 18:53

#	Program:	/corina/corina34_cracker 3.40 0067  02.08.2006

@<TRIPOS>MOLECULE
ASD00960019
  38   39    0    0    0
SMALL
NO_CHARGES


@<TRIPOS>ATOM
   1 C1            -0.0189     1.5409     0.0105 C.3     
   2 C2             0.0021    -0.0041     0.0020 C.3     
   3 C3            -0.6985    -0.3962     1.3218 C.3     
   4 O4            -1.5292     0.7387     1.6500 O.3     
   5 C5            -0.7297     1.8993     1.3344 C.3     
   6 C6            -1.6237     3.1262     1.1437 C.3     
   7 O7            -2.2379     3.4662     2.3884 O.3     
   8 C8            -0.7764    -0.5442    -1.1993 C.3     
   9 O9             1.3126     2.0597     0.0006 O.3     
  10 *10            1.4358     3.3108    -0.6380 Du      
  11 O11            1.3471    -0.4865    -0.0134 O.3     
  12 *12            1.4520    -1.8926    -0.0220 Du      
  13 C13           -1.5461    -1.6259     1.1205 C.2     
  14 O14           -2.7470    -1.5573     1.2348 O.2     
  15 O15           -0.9669    -2.7975     0.8142 O.3     
  16 C16           -1.8450    -3.9399     0.6347 C.3     
  17 C17           -1.0230    -5.1573     0.2983 C.ar    
  18 C18           -0.5497    -5.9727     1.3092 C.ar    
  19 C19            0.2044    -7.0894     1.0006 C.ar    
  20 C20            0.4848    -7.3909    -0.3190 C.ar    
  21 C21            0.0108    -6.5760    -1.3300 C.ar    
  22 C22           -0.7469    -5.4617    -1.0216 C.ar    
  23 H23           -0.5818     1.9199    -0.8424 H       
  24 H24            0.0385    -0.5666     2.1065 H       
  25 H25            0.0026     2.0810     2.1211 H       
  26 H26           -1.0207     3.9646     0.7951 H       
  27 H27           -2.3953     2.9025     0.4070 H       
  28 H28           -2.8202     4.2368     2.3421 H       
  29 H29           -0.3224    -0.1790    -2.1205 H       
  30 H30           -0.7508    -1.6338    -1.1887 H       
  31 H31           -1.8107    -0.2045    -1.1445 H       
  32 H32           -2.4003    -4.1195     1.5553 H       
  33 H33           -2.5434    -3.7373    -0.1772 H       
  34 H34           -0.7688    -5.7371     2.3402 H       
  35 H35            0.5747    -7.7261     1.7905 H       
  36 H36            1.0746    -8.2630    -0.5601 H       
  37 H37            0.2302    -6.8114    -2.3609 H       
  38 H38           -1.1204    -4.8271    -1.8116 H       
@<TRIPOS>BOND
   1    1    2 1
   2    1    9 1
   3    1    5 1
   4    1   23 1
   5    2    3 1
   6    2    8 1
   7    2   11 1
   8    3    4 1
   9    3   13 1
  10    3   24 1
  11    4    5 1
  12    5    6 1
  13    5   25 1
  14    6    7 1
  15    6   26 1
  16    6   27 1
  17    7   28 1
  18    8   29 1
  19    8   30 1
  20    8   31 1
  21    9   10 1
  22   11   12 1
  23   13   14 2
  24   13   15 1
  25   15   16 1
  26   16   17 1
  27   16   32 1
  28   16   33 1
  29   17   18 ar
  30   17   22 ar
  31   18   19 ar
  32   18   34 1
  33   19   20 ar
  34   19   35 1
  35   20   21 ar
  36   20   36 1
  37   21   22 ar
  38   21   37 1
  39   22   38 1

#	End of record

