#	Name: ASD01883620
#	Creating user name:	WinNT
#	Creation time:	15. 06. 2019 19:46

#	Modifying user name:	WinNT
#	Modification time:	15. 06. 2019 19:46

#	Program:	/corina/corina34_cracker 3.40 0067  02.08.2006

@<TRIPOS>MOLECULE
ASD01883620
  45   48    0    0    0
SMALL
NO_CHARGES


@<TRIPOS>ATOM
   1 C1             0.0144     1.1644    -1.5496 C.2     
   2 C2             0.0350    -0.0656    -0.8765 C.2     
   3 C3            -1.1792    -0.6091    -0.4077 C.2     
   4 C4            -2.3462     0.0344    -0.5982 C.2     
   5 N5            -2.4120     1.2328    -1.2476 N.pl3   
   6 C6            -1.2764     1.8323    -1.7293 C.2     
   7 C7            -3.4594     2.0610    -1.5569 C.2     
   8 C8            -2.9469     3.1236    -2.2128 C.2     
   9 N9            -1.6222     2.9685    -2.3074 N.2     
  10 C10           -4.9113     1.8288    -1.2266 C.3     
  11 C11           -5.6071     1.1716    -2.4202 C.3     
  12 C12            1.3101    -0.7823    -0.6620 C.ar    
  13 C13            1.7972    -0.9722     0.6330 C.ar    
  14 C14            2.9860    -1.6405     0.8289 C.ar    
  15 C15            3.7001    -2.1253    -0.2600 C.ar    
  16 C16            3.2188    -1.9384    -1.5499 C.ar    
  17 C17            2.0279    -1.2761    -1.7535 C.ar    
  18 O18            4.8717    -2.7832    -0.0629 O.3     
  19 C19            6.0189    -2.0579    -0.0710 C.ar    
  20 C20            5.9850    -0.6690    -0.1677 C.ar    
  21 C21            7.1734     0.0324    -0.1722 C.ar    
  22 N22            8.3301    -0.5967    -0.0863 N.ar    
  23 C23            8.4032    -1.9112     0.0067 C.ar    
  24 C24            7.2601    -2.6833     0.0231 C.ar    
  25 C25            7.1499     1.5356    -0.2769 C.3     
  26 F26           -4.9916    -0.0526    -2.7028 F       
  27 F27           -6.9550     0.9559    -2.1135 F       
  28 F28           -5.5111     2.0103    -3.5358 F       
  29 C29            1.2228     1.7539    -2.0424 C.1     
  30 N30            2.1815     2.2215    -2.4333 N.1     
  31 H31           -1.1727    -1.5560     0.1118 H       
  32 H32           -3.2572    -0.4110    -0.2266 H       
  33 H33           -3.5122     3.9608    -2.5949 H       
  34 H34           -4.9861     1.1753    -0.3574 H       
  35 H35           -5.3909     2.7825    -1.0064 H       
  36 H36            1.2429    -0.5954     1.4799 H       
  37 H37            3.3635    -1.7875     1.8301 H       
  38 H38            3.7769    -2.3163    -2.3938 H       
  39 H39            1.6544    -1.1311    -2.7565 H       
  40 H40            5.0417    -0.1480    -0.2387 H       
  41 H41            9.3698    -2.3880     0.0751 H       
  42 H42            7.3269    -3.7585     0.0995 H       
  43 H43            7.1063     1.9687     0.7224 H       
  44 H44            8.0525     1.8787    -0.7826 H       
  45 H45            6.2739     1.8465    -0.8462 H       
@<TRIPOS>BOND
   1    1    2 2
   2    1   29 1
   3    1    6 1
   4    2    3 1
   5    2   12 1
   6    3    4 2
   7    3   31 1
   8    4    5 1
   9    4   32 1
  10    5    6 1
  11    5    7 1
  12    6    9 2
  13    7    8 2
  14    7   10 1
  15    8    9 1
  16    8   33 1
  17   10   11 1
  18   10   34 1
  19   10   35 1
  20   11   26 1
  21   11   27 1
  22   11   28 1
  23   12   13 ar
  24   12   17 ar
  25   13   14 ar
  26   13   36 1
  27   14   15 ar
  28   14   37 1
  29   15   16 ar
  30   15   18 1
  31   16   17 ar
  32   16   38 1
  33   17   39 1
  34   18   19 1
  35   19   20 ar
  36   19   24 ar
  37   20   21 ar
  38   20   40 1
  39   21   22 ar
  40   21   25 1
  41   22   23 ar
  42   23   24 ar
  43   23   41 1
  44   24   42 1
  45   25   43 1
  46   25   44 1
  47   25   45 1
  48   29   30 3

#	End of record

