#	Name: ASD00210002
#	Creating user name:	WinNT
#	Creation time:	15. 06. 2019 18:33

#	Modifying user name:	WinNT
#	Modification time:	15. 06. 2019 18:33

#	Program:	/corina/corina34_cracker 3.40 0067  02.08.2006

@<TRIPOS>MOLECULE
ASD00210002
  19   18    0    0    0
SMALL
NO_CHARGES


@<TRIPOS>ATOM
   1 C1            -0.0184     1.5028     0.0103 C.2     
   2 C2             0.0021    -0.0041     0.0020 C.3     
   3 C3            -0.2550    -0.5098    -1.4189 C.3     
   4 C4             0.8994    -0.0843    -2.3284 C.3     
   5 O5             1.0197     2.1211     0.0037 O.2     
   6 O6            -1.1898     2.1580     0.0194 O.3     
   7 C7            -0.3583    -2.0363    -1.4061 C.3     
   8 N8             1.3145    -0.4785     0.4607 N.3     
   9 H9            -0.7738    -0.3816     0.6680 H       
  10 H10           -1.1871    -0.0857    -1.7924 H       
  11 H11            0.7163    -0.4446    -3.3407 H       
  12 H12            0.9730     1.0031    -2.3375 H       
  13 H13            1.8315    -0.5084    -1.9549 H       
  14 H14           -1.1523     3.1243     0.0245 H       
  15 H15           -1.1807    -2.3394    -0.7582 H       
  16 H16           -0.5414    -2.3965    -2.4184 H       
  17 H17            0.5738    -2.4603    -1.0326 H       
  18 H18            1.3326    -1.4853     0.5256 H       
  19 H19            2.0512    -0.1417    -0.1409 H       
@<TRIPOS>BOND
   1    1    2 1
   2    1    5 2
   3    1    6 1
   4    2    3 1
   5    2    8 1
   6    2    9 1
   7    3    4 1
   8    3    7 1
   9    3   10 1
  10    4   11 1
  11    4   12 1
  12    4   13 1
  13    6   14 1
  14    7   15 1
  15    7   16 1
  16    7   17 1
  17    8   18 1
  18    8   19 1

#	End of record

