#	Name: ASD00170452
#	Creating user name:	WinNT
#	Creation time:	15. 06. 2019 18:32

#	Modifying user name:	WinNT
#	Modification time:	15. 06. 2019 18:32

#	Program:	/corina/corina34_cracker 3.40 0067  02.08.2006

@<TRIPOS>MOLECULE
ASD00170452
  80   84    0    0    0
SMALL
NO_CHARGES


@<TRIPOS>ATOM
   1 C1            -0.8348     0.8804    -0.4770 C.2     
   2 C2            -0.7440    -0.4501    -0.1318 C.2     
   3 C3            -2.0073    -1.0054     0.2938 C.2     
   4 C4            -3.0060    -0.1146     0.2655 C.2     
   5 S5            -2.4289     1.4497    -0.2805 S.3     
   6 C6            -2.1829    -2.4387     0.7249 C.3     
   7 N7             0.2221     1.6488    -0.9164 N.pl3   
   8 C8             0.4999    -1.2187    -0.1900 C.2     
   9 C9             0.8387    -1.9858    -1.4079 C.ar    
  10 O10            1.2561    -1.2266     0.7645 O.2     
  11 C11            2.0729    -2.6304    -1.5094 C.ar    
  12 C12            2.3832    -3.3443    -2.6477 C.ar    
  13 C13            1.4733    -3.4221    -3.6892 C.ar    
  14 C14            0.2472    -2.7847    -3.5942 C.ar    
  15 C15           -0.0768    -2.0731    -2.4584 C.ar    
  16 Cl16           1.8715    -4.3218    -5.1195 Cl      
  17 C17           -4.4033    -0.4073     0.6480 C.ar    
  18 C18           -5.0852     0.4475     1.5160 C.ar    
  19 C19           -6.3886     0.1708     1.8703 C.ar    
  20 C20           -7.0230    -0.9561     1.3653 C.ar    
  21 C21           -6.3484    -1.8091     0.5022 C.ar    
  22 C22           -5.0469    -1.5363     0.1379 C.ar    
  23 N23           -1.3037    -2.7174     1.8683 N.3     
  24 C24           -1.8840    -2.2034     3.1161 C.3     
  25 C25           -1.0168    -4.1543     1.9738 C.3     
  26 C26           -0.2405    -4.6115     0.7372 C.3     
  27 C27            0.0583    -6.1080     0.8471 C.3     
  28 C28            0.8955    -6.3702     2.1007 C.3     
  29 C29            0.1191    -5.9130     3.3373 C.3     
  30 C30           -0.1797    -4.4165     3.2274 C.3     
  31 C31           -1.8089    -0.6753     3.1220 C.3     
  32 C32           -2.4132    -0.1399     4.4216 C.3     
  33 C33           -3.8753    -0.5791     4.5230 C.3     
  34 C34           -3.9504    -2.1072     4.5172 C.3     
  35 C35           -3.3461    -2.6426     3.2175 C.3     
  36 O36           -8.3079    -1.2253     1.7170 O.3     
  37 C37           -8.9001    -2.4010     1.1610 C.3     
  38 C38          -10.3374    -2.5366     1.6676 C.3     
  39 C39          -10.9714    -3.7954     1.0723 C.3     
  40 H40           -3.2202    -2.6064     1.0149 H       
  41 H41           -1.9251    -3.1009    -0.1016 H       
  42 H42            1.1184     1.2784    -0.9298 H       
  43 H43            0.0693     2.5599    -1.2121 H       
  44 H44            2.7834    -2.5698    -0.6983 H       
  45 H45            3.3376    -3.8433    -2.7275 H       
  46 H46           -0.4582    -2.8490    -4.4095 H       
  47 H47           -1.0332    -1.5768    -2.3853 H       
  48 H48           -4.5923     1.3242     1.9096 H       
  49 H49           -6.9167     0.8314     2.5420 H       
  50 H50           -6.8454    -2.6849     0.1118 H       
  51 H51           -4.5229    -2.2002    -0.5338 H       
  52 H52           -1.3264    -2.5979     3.9656 H       
  53 H53           -1.9534    -4.7079     2.0401 H       
  54 H54           -0.8369    -4.4247    -0.1558 H       
  55 H55            0.6961    -4.0579     0.6710 H       
  56 H56           -0.8783    -6.6616     0.9134 H       
  57 H57            0.6114    -6.4337    -0.0338 H       
  58 H58            1.1084    -7.4363     2.1790 H       
  59 H59            1.8321    -5.8166     2.0344 H       
  60 H60           -0.8175    -6.4666     3.4035 H       
  61 H61            0.7155    -6.0998     4.2303 H       
  62 H62            0.7569    -3.8629     3.1611 H       
  63 H63           -0.7328    -4.0907     4.1083 H       
  64 H64           -0.7672    -0.3624     3.0497 H       
  65 H65           -2.3664    -0.2809     2.2725 H       
  66 H66           -1.8556    -0.5344     5.2711 H       
  67 H67           -2.3597     0.9487     4.4258 H       
  68 H68           -4.3058    -0.1977     5.4489 H       
  69 H69           -4.4329    -0.1846     3.6736 H       
  70 H70           -3.3928    -2.5016     5.3667 H       
  71 H71           -4.9920    -2.4201     4.5894 H       
  72 H72           -3.9037    -2.2481     2.3681 H       
  73 H73           -3.3996    -3.7312     3.2134 H       
  74 H74           -8.9036    -2.3266     0.0736 H       
  75 H75           -8.3242    -3.2757     1.4635 H       
  76 H76          -10.3339    -2.6110     2.7551 H       
  77 H77          -10.9132    -1.6619     1.3651 H       
  78 H78          -10.9749    -3.7209    -0.0151 H       
  79 H79          -10.3955    -4.6700     1.3748 H       
  80 H80          -11.9954    -3.8919     1.4332 H       
@<TRIPOS>BOND
   1    1    2 2
   2    1    7 1
   3    1    5 1
   4    2    3 1
   5    2    8 1
   6    3    4 2
   7    3    6 1
   8    4    5 1
   9    4   17 1
  10    6   23 1
  11    6   40 1
  12    6   41 1
  13    7   42 1
  14    7   43 1
  15    8    9 1
  16    8   10 2
  17    9   11 ar
  18    9   15 ar
  19   11   12 ar
  20   11   44 1
  21   12   13 ar
  22   12   45 1
  23   13   14 ar
  24   13   16 1
  25   14   15 ar
  26   14   46 1
  27   15   47 1
  28   17   18 ar
  29   17   22 ar
  30   18   19 ar
  31   18   48 1
  32   19   20 ar
  33   19   49 1
  34   20   21 ar
  35   20   36 1
  36   21   22 ar
  37   21   50 1
  38   22   51 1
  39   23   24 1
  40   23   25 1
  41   24   31 1
  42   24   35 1
  43   24   52 1
  44   25   26 1
  45   25   30 1
  46   25   53 1
  47   26   27 1
  48   26   54 1
  49   26   55 1
  50   27   28 1
  51   27   56 1
  52   27   57 1
  53   28   29 1
  54   28   58 1
  55   28   59 1
  56   29   30 1
  57   29   60 1
  58   29   61 1
  59   30   62 1
  60   30   63 1
  61   31   32 1
  62   31   64 1
  63   31   65 1
  64   32   33 1
  65   32   66 1
  66   32   67 1
  67   33   34 1
  68   33   68 1
  69   33   69 1
  70   34   35 1
  71   34   70 1
  72   34   71 1
  73   35   72 1
  74   35   73 1
  75   36   37 1
  76   37   38 1
  77   37   74 1
  78   37   75 1
  79   38   39 1
  80   38   76 1
  81   38   77 1
  82   39   78 1
  83   39   79 1
  84   39   80 1

#	End of record

