#	Name: ASD09960001
#	Creating user name:	WinNT
#	Creation time:	15. 06. 2019 21:24

#	Modifying user name:	WinNT
#	Modification time:	15. 06. 2019 21:24

#	Program:	/corina/corina34_cracker 3.40 0067  02.08.2006

@<TRIPOS>MOLECULE
ASD09960001
  83   85    0    0    0
SMALL
NO_CHARGES


@<TRIPOS>ATOM
   1 S1             1.3112     1.1389     0.2128 S.3     
   2 S2             1.1203    -0.8871    -0.0352 S.3     
   3 C3            -0.6588    -1.0979    -0.3189 C.3     
   4 C4            -1.2008    -2.1770     0.6208 C.3     
   5 N5            -1.4147    -1.5671     1.9590 N.am    
   6 C6            -1.2154    -2.4332     3.0042 C.2     
   7 C7            -1.3982    -1.9174     4.4082 C.3     
   8 N8            -0.0691    -1.5837     4.9664 N.am    
   9 C9             0.2207    -0.2534     5.0509 C.2     
  10 C10            1.5608     0.1692     5.5953 C.3     
  11 N11            2.0947     1.2533     4.7303 N.am    
  12 C12            2.1676     0.9197     3.4014 C.2     
  13 C13            2.6910     1.9477     2.4320 C.3     
  14 C14            2.9053     1.2972     1.0639 C.3     
  15 C15           -2.5083    -2.7042     0.0882 C.2     
  16 O16           -3.5523    -2.3087     0.5502 O.2     
  17 O17           -2.5130    -3.6131    -0.8996 O.3     
  18 N18            1.7217     3.0391     2.3072 N.am    
  19 C19            1.7340     4.0557     3.1920 C.2     
  20 N20            0.6212     5.8799     4.3491 N.3     
  21 C21            0.7370     5.1784     3.0636 C.3     
  22 C22            1.2088     6.1591     1.9882 C.3     
  23 C23            0.1545     7.2142     1.7731 C.ar    
  24 C24            0.1808     8.3782     2.5188 C.ar    
  25 C25           -0.7848     9.3468     2.3239 C.ar    
  26 C26           -1.7811     9.1509     1.3786 C.ar    
  27 O27           -2.7319    10.1024     1.1846 O.3     
  28 C28           -1.8050     7.9823     0.6313 C.ar    
  29 C29           -0.8342     7.0191     0.8264 C.ar    
  30 O30            2.5475     4.0670     4.0914 O.2     
  31 O31            1.8196    -0.1764     3.0163 O.2     
  32 O32           -0.5877     0.5768     4.6930 O.2     
  33 O33           -0.8998    -3.5868     2.8028 O.2     
  34 C34            3.5240    -0.0896     1.2500 C.3     
  35 C35            3.8458     2.1671     0.2274 C.3     
  36 C36           -1.3789     0.2242    -0.0463 C.3     
  37 C37           -0.8975    -1.5189    -1.7703 C.3     
  38 C38           -2.2746    -0.6635     4.3845 C.3     
  39 C39           -3.6918    -1.0476     4.0449 C.ar    
  40 C40           -4.5334    -1.5264     5.0314 C.ar    
  41 C41           -5.8333    -1.8787     4.7199 C.ar    
  42 C42           -6.2917    -1.7518     3.4220 C.ar    
  43 C43           -5.4503    -1.2721     2.4356 C.ar    
  44 C44           -4.1517    -0.9157     2.7480 C.ar    
  45 H45           -0.4805    -2.9913     0.6992 H       
  46 H46           -1.6722    -0.6401     2.0824 H       
  47 H47           -1.8702    -2.6850     5.0214 H       
  48 H48            0.5560    -2.2673     5.2541 H       
  49 H49            1.4440     0.5365     6.6149 H       
  50 H50            2.2453    -0.6791     5.5859 H       
  51 H51            2.3665     2.1186     5.0741 H       
  52 H52            3.6383     2.3434     2.7984 H       
  53 H53           -3.3760    -3.9215    -1.2082 H       
  54 H54            1.0711     3.0301     1.5878 H       
  55 H55            0.2497     5.2698     5.0618 H       
  56 H56            1.5094     6.2667     4.6312 H       
  57 H57           -0.2345     4.7713     2.7831 H       
  58 H58            2.1363     6.6326     2.3100 H       
  59 H59            1.3800     5.6211     1.0558 H       
  60 H60            0.9566     8.5302     3.2546 H       
  61 H61           -0.7642    10.2555     2.9071 H       
  62 H62           -2.4996    10.7597     0.5144 H       
  63 H63           -2.5799     7.8273    -0.1049 H       
  64 H64           -0.8498     6.1111     0.2419 H       
  65 H65            3.9617    -0.4215     0.3085 H       
  66 H66            4.2996    -0.0419     2.0144 H       
  67 H67            2.7515    -0.7935     1.5597 H       
  68 H68            3.4050     3.1551     0.0947 H       
  69 H69            4.8037     2.2622     0.7388 H       
  70 H70            3.9988     1.7035    -0.7472 H       
  71 H71           -1.0847     0.9593    -0.7954 H       
  72 H72           -2.4565     0.0677    -0.0945 H       
  73 H73           -1.1085     0.5876     0.9451 H       
  74 H74           -0.3845    -2.4608    -1.9645 H       
  75 H75           -1.9666    -1.6455    -1.9408 H       
  76 H76           -0.5114    -0.7501    -2.4397 H       
  77 H77           -2.2524    -0.1861     5.3641 H       
  78 H78           -1.8963     0.0301     3.6336 H       
  79 H79           -4.1753    -1.6256     6.0455 H       
  80 H80           -6.4907    -2.2535     5.4905 H       
  81 H81           -7.3070    -2.0277     3.1784 H       
  82 H82           -5.8083    -1.1732     1.4215 H       
  83 H83           -3.4955    -0.5374     1.9781 H       
@<TRIPOS>BOND
   1    1    2 1
   2    1   14 1
   3    2    3 1
   4    3    4 1
   5    3   36 1
   6    3   37 1
   7    4    5 1
   8    4   15 1
   9    4   45 1
  10    5    6 am
  11    5   46 1
  12    6    7 1
  13    6   33 2
  14    7    8 1
  15    7   38 1
  16    7   47 1
  17    8    9 am
  18    8   48 1
  19    9   10 1
  20    9   32 2
  21   10   11 1
  22   10   49 1
  23   10   50 1
  24   11   12 am
  25   11   51 1
  26   12   13 1
  27   12   31 2
  28   13   14 1
  29   13   18 1
  30   13   52 1
  31   14   34 1
  32   14   35 1
  33   15   16 2
  34   15   17 1
  35   17   53 1
  36   18   19 am
  37   18   54 1
  38   19   21 1
  39   19   30 2
  40   20   21 1
  41   20   55 1
  42   20   56 1
  43   21   22 1
  44   21   57 1
  45   22   23 1
  46   22   58 1
  47   22   59 1
  48   23   24 ar
  49   23   29 ar
  50   24   25 ar
  51   24   60 1
  52   25   26 ar
  53   25   61 1
  54   26   27 1
  55   26   28 ar
  56   27   62 1
  57   28   29 ar
  58   28   63 1
  59   29   64 1
  60   34   65 1
  61   34   66 1
  62   34   67 1
  63   35   68 1
  64   35   69 1
  65   35   70 1
  66   36   71 1
  67   36   72 1
  68   36   73 1
  69   37   74 1
  70   37   75 1
  71   37   76 1
  72   38   39 1
  73   38   77 1
  74   38   78 1
  75   39   40 ar
  76   39   44 ar
  77   40   41 ar
  78   40   79 1
  79   41   42 ar
  80   41   80 1
  81   42   43 ar
  82   42   81 1
  83   43   44 ar
  84   43   82 1
  85   44   83 1

#	End of record

