#	Name: ASD01800025
#	Creating user name:	WinNT
#	Creation time:	15. 06. 2019 19:23

#	Modifying user name:	WinNT
#	Modification time:	15. 06. 2019 19:23

#	Program:	/corina/corina34_cracker 3.40 0067  02.08.2006

@<TRIPOS>MOLECULE
ASD01800025
  56   59    0    0    0
SMALL
NO_CHARGES


@<TRIPOS>ATOM
   1 C1            -0.2530     0.8534     0.3096 C.ar    
   2 C2             0.0008    -0.4889     0.5751 C.ar    
   3 C3             1.2963    -0.9879     0.4581 C.ar    
   4 C4             2.3318    -0.1489     0.0777 C.ar    
   5 C5             2.0822     1.1883    -0.1874 C.ar    
   6 C6             0.7889     1.6932    -0.0721 C.ar    
   7 O7             3.5950    -0.6386    -0.0352 O.3     
   8 C8             3.8699    -1.3745    -1.1291 C.2     
   9 N9             5.0693    -1.9768    -1.2522 N.am    
  10 C10            5.3684    -2.7773    -2.4421 C.3     
  11 C11            6.8889    -2.8312    -2.6726 C.3     
  12 C12            7.2942    -4.3176    -2.5931 C.3     
  13 C13            5.9914    -5.0850    -2.9289 C.3     
  14 C14            4.9029    -4.2327    -2.2305 C.3     
  15 O15            3.0366    -1.4955    -2.0052 O.2     
  16 C16           -1.1074    -1.3879     0.9830 C.ar    
  17 C17           -0.8553    -2.7321     1.2492 C.ar    
  18 C18           -1.8895    -3.5635     1.6286 C.ar    
  19 C19           -3.1744    -3.0646     1.7447 C.ar    
  20 C20           -3.4302    -1.7310     1.4817 C.ar    
  21 C21           -2.4025    -0.8894     1.1066 C.ar    
  22 C22            0.5224     3.1252    -0.3566 C.ar    
  23 C23            1.5641     3.9676    -0.7394 C.ar    
  24 C24            1.3106     5.2984    -1.0032 C.ar    
  25 C25            0.0252     5.7962    -0.8882 C.ar    
  26 C26           -1.0127     4.9644    -0.5086 C.ar    
  27 C27           -0.7713     3.6308    -0.2475 C.ar    
  28 C28           -4.2996    -3.9774     2.1589 C.3     
  29 C29           -0.2454     7.2503    -1.1771 C.3     
  30 H30           -1.2572     1.2414     0.3954 H       
  31 H31            1.4940    -2.0294     0.6643 H       
  32 H32            2.8913     1.8397    -0.4833 H       
  33 H33            5.7345    -1.8802    -0.5528 H       
  34 H34            4.8736    -2.3492    -3.3138 H       
  35 H35            7.1318    -2.4301    -3.6565 H       
  36 H36            7.4042    -2.2618    -1.8991 H       
  37 H37            8.0688    -4.5415    -3.3265 H       
  38 H38            7.6354    -4.5667    -1.5883 H       
  39 H39            5.8271    -5.1143    -4.0061 H       
  40 H40            6.0186    -6.0925    -2.5138 H       
  41 H41            4.8580    -4.4682    -1.1672 H       
  42 H42            3.9323    -4.3948    -2.6994 H       
  43 H43            0.1475    -3.1227     1.1585 H       
  44 H44           -1.6953    -4.6057     1.8349 H       
  45 H45           -4.4353    -1.3466     1.5738 H       
  46 H46           -2.6033     0.1518     0.9018 H       
  47 H47            2.5682     3.5800    -0.8291 H       
  48 H48            2.1173     5.9524    -1.2997 H       
  49 H49           -2.0144     5.3583    -0.4203 H       
  50 H50           -1.5825     2.9821     0.0485 H       
  51 H51           -4.3932    -3.9692     3.2449 H       
  52 H52           -5.2314    -3.6317     1.7114 H       
  53 H53           -4.0882    -4.9916     1.8201 H       
  54 H54           -0.4875     7.3721    -2.2329 H       
  55 H55           -1.0842     7.5914    -0.5704 H       
  56 H56            0.6398     7.8393    -0.9371 H       
@<TRIPOS>BOND
   1    1    2 ar
   2    1    6 ar
   3    1   30 1
   4    2    3 ar
   5    2   16 1
   6    3    4 ar
   7    3   31 1
   8    4    5 ar
   9    4    7 1
  10    5    6 ar
  11    5   32 1
  12    6   22 1
  13    7    8 1
  14    8    9 am
  15    8   15 2
  16    9   10 1
  17    9   33 1
  18   10   11 1
  19   10   14 1
  20   10   34 1
  21   11   12 1
  22   11   35 1
  23   11   36 1
  24   12   13 1
  25   12   37 1
  26   12   38 1
  27   13   14 1
  28   13   39 1
  29   13   40 1
  30   14   41 1
  31   14   42 1
  32   16   17 ar
  33   16   21 ar
  34   17   18 ar
  35   17   43 1
  36   18   19 ar
  37   18   44 1
  38   19   20 ar
  39   19   28 1
  40   20   21 ar
  41   20   45 1
  42   21   46 1
  43   22   23 ar
  44   22   27 ar
  45   23   24 ar
  46   23   47 1
  47   24   25 ar
  48   24   48 1
  49   25   26 ar
  50   25   29 1
  51   26   27 ar
  52   26   49 1
  53   27   50 1
  54   28   51 1
  55   28   52 1
  56   28   53 1
  57   29   54 1
  58   29   55 1
  59   29   56 1

#	End of record

