#	Name: ASD03730225
#	Creating user name:	WinNT
#	Creation time:	15. 06. 2019 20:44

#	Modifying user name:	WinNT
#	Modification time:	15. 06. 2019 20:44

#	Program:	/corina/corina34_cracker 3.40 0067  02.08.2006

@<TRIPOS>MOLECULE
ASD03730225
  61   66    0    0    0
SMALL
NO_CHARGES


@<TRIPOS>ATOM
   1 C1            -0.0183     1.4730     0.0108 C.2     
   2 C2             0.0017    -0.0041     0.0027 C.ar    
   3 C3            -0.5767    -0.7052    -1.0583 C.ar    
   4 C4            -0.5570    -2.0817    -1.0650 C.ar    
   5 C5             0.0397    -2.7765    -0.0127 C.ar    
   6 C6             0.6171    -2.0774     1.0474 C.ar    
   7 C7             0.6041    -0.7008     1.0532 C.ar    
   8 O8            -0.5382     2.0789    -0.9060 O.2     
   9 N9             0.5349     2.1488     1.0373 N.am    
  10 O10           -5.9794    -2.9772     0.4030 O.3     
  11 C11           -6.2721    -1.5997     0.1029 C.3     
  12 O12           -5.4978    -0.8669     1.0706 O.3     
  13 C13           -4.4384    -1.6725     1.3766 C.ar    
  14 C14           -4.7359    -2.9704     0.9672 C.ar    
  15 C15           -3.2240    -1.3988     1.9797 C.ar    
  16 C16           -2.2938    -2.4133     2.1843 C.ar    
  17 C17           -2.6057    -3.7076     1.7790 C.ar    
  18 C18           -3.8131    -3.9824     1.1716 C.ar    
  19 O19           -1.0486    -2.3557     2.7376 O.3     
  20 C20           -1.4308    -4.5699     2.1557 C.3     
  21 C21           -0.6390    -3.6815     3.1250 C.3     
  22 N22           -1.3328    -6.8504     2.0485 N.am    
  23 C23           -1.8549    -5.8592     2.7982 C.2     
  24 C24           -0.6104    -4.9701     0.9659 C.ar    
  25 C25            0.0598    -4.2592    -0.0209 C.ar    
  26 C26            0.7517    -4.9440    -1.0202 C.ar    
  27 C27            0.7643    -6.3246    -1.0201 C.ar    
  28 C28            0.0982    -7.0305    -0.0389 C.ar    
  29 C29           -0.5965    -6.3603     0.9667 C.ar    
  30 C30           -1.5154    -8.2755     2.3350 C.3     
  31 C31           -2.7692    -8.7829     1.6199 C.3     
  32 C32           -2.9599   -10.2712     1.9191 C.3     
  33 C33           -4.2137   -10.7786     1.2040 C.3     
  34 C34           -4.4044   -12.2669     1.5032 C.3     
  35 O35           -2.5334    -5.9842     3.7958 O.2     
  36 H36           -1.0393    -0.1676    -1.8727 H       
  37 H37           -1.0041    -2.6240    -1.8851 H       
  38 H38            1.0785    -2.6163     1.8618 H       
  39 H39            1.0554    -0.1597     1.8717 H       
  40 H40            0.9461     1.6653     1.7708 H       
  41 H41            0.5217     3.1187     1.0426 H       
  42 H42           -5.9531    -1.3521    -0.9095 H       
  43 H43           -7.3355    -1.3974     0.2308 H       
  44 H44           -2.9964    -0.3909     2.2940 H       
  45 H45           -4.0399    -4.9899     0.8554 H       
  46 H46            0.4336    -3.8126     2.9820 H       
  47 H47           -0.9210    -3.8877     4.1575 H       
  48 H48            1.2746    -4.3967    -1.7905 H       
  49 H49            1.2990    -6.8559    -1.7936 H       
  50 H50            0.1156    -8.1103    -0.0501 H       
  51 H51           -0.6463    -8.8312     1.9828 H       
  52 H52           -1.6271    -8.4186     3.4098 H       
  53 H53           -3.6383    -8.2273     1.9720 H       
  54 H54           -2.6575    -8.6398     0.5451 H       
  55 H55           -2.0908   -10.8269     1.5669 H       
  56 H56           -3.0716   -10.4144     2.9938 H       
  57 H57           -5.0828   -10.2230     1.5561 H       
  58 H58           -4.1020   -10.6355     0.1292 H       
  59 H59           -3.5353   -12.8226     1.1510 H       
  60 H60           -4.5160   -12.4101     2.5779 H       
  61 H61           -5.2976   -12.6284     0.9937 H       
@<TRIPOS>BOND
   1    1    2 1
   2    1    8 2
   3    1    9 am
   4    2    3 ar
   5    2    7 ar
   6    3    4 ar
   7    3   36 1
   8    4    5 ar
   9    4   37 1
  10    5    6 ar
  11    5   25 1
  12    6    7 ar
  13    6   38 1
  14    7   39 1
  15    9   40 1
  16    9   41 1
  17   10   11 1
  18   10   14 1
  19   11   12 1
  20   11   42 1
  21   11   43 1
  22   12   13 1
  23   13   14 ar
  24   13   15 ar
  25   14   18 ar
  26   15   16 ar
  27   15   44 1
  28   16   17 ar
  29   16   19 1
  30   17   18 ar
  31   17   20 1
  32   18   45 1
  33   19   21 1
  34   20   21 1
  35   20   23 1
  36   20   24 1
  37   21   46 1
  38   21   47 1
  39   22   23 am
  40   22   29 1
  41   22   30 1
  42   23   35 2
  43   24   25 ar
  44   24   29 ar
  45   25   26 ar
  46   26   27 ar
  47   26   48 1
  48   27   28 ar
  49   27   49 1
  50   28   29 ar
  51   28   50 1
  52   30   31 1
  53   30   51 1
  54   30   52 1
  55   31   32 1
  56   31   53 1
  57   31   54 1
  58   32   33 1
  59   32   55 1
  60   32   56 1
  61   33   34 1
  62   33   57 1
  63   33   58 1
  64   34   59 1
  65   34   60 1
  66   34   61 1

#	End of record

