#	Name: ASD00461048
#	Creating user name:	WinNT
#	Creation time:	15. 06. 2019 18:36

#	Modifying user name:	WinNT
#	Modification time:	15. 06. 2019 18:36

#	Program:	/corina/corina34_cracker 3.40 0067  02.08.2006

@<TRIPOS>MOLECULE
ASD00461048
  72   75    0    0    0
SMALL
NO_CHARGES


@<TRIPOS>ATOM
   1 C1            -0.0381     1.3349    -0.0277 C.ar    
   2 C2             0.0268    -0.0394     0.0770 C.ar    
   3 C3             1.2668    -0.6763     0.0997 C.ar    
   4 C4             2.4345     0.0803     0.0165 C.ar    
   5 C5             2.3573     1.4543    -0.0879 C.ar    
   6 C6             1.1244     2.0807    -0.1100 C.ar    
   7 C7             3.7787    -0.6007     0.0410 C.3     
   8 O8             4.7406     0.2200    -0.6247 O.3     
   9 C9             5.7931    -0.5129    -1.2550 C.3     
  10 C10            6.7586     0.4618    -1.9323 C.3     
  11 C11            7.9501    -0.3123    -2.4997 C.3     
  12 N12            8.9340     0.6332    -3.0438 N.3     
  13 C13           10.0947    -0.0760    -3.5987 C.3     
  14 O14            6.0835     1.1415    -2.9927 O.3     
  15 C15           11.0950     0.9396    -4.1545 C.3     
  16 C16           10.7635    -0.9000    -2.4967 C.3     
  17 C17            9.6344    -1.0061    -4.7229 C.3     
  18 C18           12.2857     0.2121    -4.7237 C.ar    
  19 C19           12.2799    -0.1707    -6.0634 C.ar    
  20 C20           13.3389    -0.8295    -6.6087 C.ar    
  21 C21           14.4564    -1.1293    -5.8116 C.ar    
  22 C22           14.4625    -0.7394    -4.4488 C.ar    
  23 C23           13.3531    -0.0564    -3.9227 C.ar    
  24 C24           15.5682    -1.8085    -6.3388 C.ar    
  25 C25           16.6328    -2.0821    -5.5365 C.ar    
  26 C26           16.6388    -1.6986    -4.1964 C.ar    
  27 C27           15.5803    -1.0395    -3.6513 C.ar    
  28 C28            1.3431    -2.1527     0.2126 C.ar    
  29 C29            0.7395    -2.8015     1.2902 C.ar    
  30 C30            0.8092    -4.1721     1.3959 C.ar    
  31 C31            1.4850    -4.9139     0.4231 C.ar    
  32 C32            2.0893    -4.2628    -0.6558 C.ar    
  33 C33            2.0136    -2.8925    -0.7620 C.ar    
  34 C34            4.2126    -0.8207     1.4916 C.3     
  35 C35            1.5610    -6.3836     0.5355 C.2     
  36 O36            1.0359    -6.9491     1.4738 O.2     
  37 O37            2.2127    -7.0982    -0.4027 O.3     
  38 H38           -0.9981     1.8290    -0.0500 H       
  39 H39           -0.8813    -0.6205     0.1415 H       
  40 H40            3.2614     2.0416    -0.1521 H       
  41 H41            1.0688     3.1562    -0.1922 H       
  42 H42            3.7080    -1.5625    -0.4670 H       
  43 H43            6.3301    -1.0946    -0.5058 H       
  44 H44            5.3710    -1.1845    -2.0026 H       
  45 H45            7.1125     1.1892    -1.2017 H       
  46 H46            8.4118    -0.9010    -1.7070 H       
  47 H47            7.6073    -0.9766    -3.2930 H       
  48 H48            8.5131     1.2348    -3.7359 H       
  49 H49            5.7410     0.5547    -3.6808 H       
  50 H50           10.6185     1.5267    -4.9396 H       
  51 H51           11.4229     1.6023    -3.3535 H       
  52 H52           10.0509    -1.6235    -2.1007 H       
  53 H53           11.6247    -1.4262    -2.9084 H       
  54 H54           11.0914    -0.2374    -1.6958 H       
  55 H55            9.1579    -0.4190    -5.5080 H       
  56 H56           10.4956    -1.5323    -5.1346 H       
  57 H57            8.9217    -1.7296    -4.3270 H       
  58 H58           11.4221     0.0585    -6.6783 H       
  59 H59           13.3201    -1.1207    -7.6486 H       
  60 H60           13.3438     0.2468    -2.8862 H       
  61 H61           15.5774    -2.1121    -7.3753 H       
  62 H62           17.4856    -2.6044    -5.9441 H       
  63 H63           17.4965    -1.9281    -3.5815 H       
  64 H64           15.5992    -0.7483    -2.6115 H       
  65 H65            0.2176    -2.2280     2.0419 H       
  66 H66            0.3421    -4.6741     2.2303 H       
  67 H67            2.6119    -4.8348    -1.4082 H       
  68 H68            2.4801    -2.3891    -1.5958 H       
  69 H69            3.4789    -1.4467     1.9993 H       
  70 H70            5.1848    -1.3132     1.5093 H       
  71 H71            4.2833     0.1411     1.9995 H       
  72 H72            2.2357    -8.0579    -0.2863 H       
@<TRIPOS>BOND
   1    1    2 ar
   2    1    6 ar
   3    1   38 1
   4    2    3 ar
   5    2   39 1
   6    3    4 ar
   7    3   28 1
   8    4    5 ar
   9    4    7 1
  10    5    6 ar
  11    5   40 1
  12    6   41 1
  13    7    8 1
  14    7   34 1
  15    7   42 1
  16    8    9 1
  17    9   10 1
  18    9   43 1
  19    9   44 1
  20   10   11 1
  21   10   14 1
  22   10   45 1
  23   11   12 1
  24   11   46 1
  25   11   47 1
  26   12   13 1
  27   12   48 1
  28   13   15 1
  29   13   16 1
  30   13   17 1
  31   14   49 1
  32   15   18 1
  33   15   50 1
  34   15   51 1
  35   16   52 1
  36   16   53 1
  37   16   54 1
  38   17   55 1
  39   17   56 1
  40   17   57 1
  41   18   19 ar
  42   18   23 ar
  43   19   20 ar
  44   19   58 1
  45   20   21 ar
  46   20   59 1
  47   21   22 ar
  48   21   24 ar
  49   22   23 ar
  50   22   27 ar
  51   23   60 1
  52   24   25 ar
  53   24   61 1
  54   25   26 ar
  55   25   62 1
  56   26   27 ar
  57   26   63 1
  58   27   64 1
  59   28   29 ar
  60   28   33 ar
  61   29   30 ar
  62   29   65 1
  63   30   31 ar
  64   30   66 1
  65   31   32 ar
  66   31   35 1
  67   32   33 ar
  68   32   67 1
  69   33   68 1
  70   34   69 1
  71   34   70 1
  72   34   71 1
  73   35   36 2
  74   35   37 1
  75   37   72 1

#	End of record

