#	Name: ASD03080196
#	Creating user name:	WinNT
#	Creation time:	15. 06. 2019 20:26

#	Modifying user name:	WinNT
#	Modification time:	15. 06. 2019 20:26

#	Program:	/corina/corina34_cracker 3.40 0067  02.08.2006

@<TRIPOS>MOLECULE
ASD03080196
  44   46    0    0    0
SMALL
NO_CHARGES


@<TRIPOS>ATOM
   1 C1            -0.0962     1.4049    -0.2899 C.ar    
   2 C2            -0.1260     0.0287    -0.4742 C.ar    
   3 C3             0.9145    -0.5856    -1.1587 C.ar    
   4 C4             1.9564     0.2157    -1.6370 C.ar    
   5 C5             1.9096     1.5913    -1.4090 C.ar    
   6 N6             0.9019     2.1305    -0.7542 N.ar    
   7 C7             3.0893    -0.3856    -2.3719 C.2     
   8 C8             4.0713     0.3837    -2.8206 C.2     
   9 N9             6.4390    -0.2089    -5.6980 N.3     
  10 C10            5.3009     0.3726    -4.9749 C.3     
  11 C11            5.2263    -0.2292    -3.5698 C.3     
  12 C12            6.5317     0.0629    -2.8247 C.3     
  13 C13            7.7054    -0.5110    -3.6231 C.3     
  14 C14            7.7081     0.0990    -5.0266 C.3     
  15 C15            6.4601     0.2417    -7.0961 C.3     
  16 O16           -1.1605    -0.7078     0.0098 O.3     
  17 C17           -1.0885    -2.0600    -0.1027 C.ar    
  18 C18           -0.4856    -2.8096     0.8974 C.ar    
  19 C19           -0.4137    -4.1841     0.7805 C.ar    
  20 C20           -0.9413    -4.8131    -0.3321 C.ar    
  21 C21           -1.5426    -4.0686    -1.3301 C.ar    
  22 C22           -1.6227    -2.6943    -1.2153 C.ar    
  23 H23           -0.9050     1.8885     0.2377 H       
  24 H24            0.9192    -1.6539    -1.3173 H       
  25 H25            2.7082     2.2207    -1.7730 H       
  26 H26            3.1171    -1.4515    -2.5433 H       
  27 H27            4.0435     1.4496    -2.6492 H       
  28 H28            5.4309     1.4523    -4.9010 H       
  29 H29            4.3786     0.1540    -5.5130 H       
  30 H30            5.0824    -1.3072    -3.6428 H       
  31 H31            6.6564     1.1404    -2.7173 H       
  32 H32            6.5001    -0.4011    -1.8389 H       
  33 H33            8.6412    -0.2691    -3.1193 H       
  34 H34            7.6005    -1.5935    -3.6970 H       
  35 H35            8.5342    -0.3183    -5.6024 H       
  36 H36            7.8269     1.1800    -4.9525 H       
  37 H37            6.5450     1.3280    -7.1264 H       
  38 H38            7.3128    -0.2038    -7.6085 H       
  39 H39            5.5384    -0.0647    -7.5906 H       
  40 H40           -0.0727    -2.3187     1.7663 H       
  41 H41            0.0554    -4.7679     1.5586 H       
  42 H42           -0.8834    -5.8878    -0.4219 H       
  43 H43           -1.9539    -4.5623    -2.1981 H       
  44 H44           -2.0967    -2.1136    -1.9928 H       
@<TRIPOS>BOND
   1    1    2 ar
   2    1    6 ar
   3    1   23 1
   4    2    3 ar
   5    2   16 1
   6    3    4 ar
   7    3   24 1
   8    4    5 ar
   9    4    7 1
  10    5    6 ar
  11    5   25 1
  12    7    8 2
  13    7   26 1
  14    8   11 1
  15    8   27 1
  16    9   10 1
  17    9   14 1
  18    9   15 1
  19   10   11 1
  20   10   28 1
  21   10   29 1
  22   11   12 1
  23   11   30 1
  24   12   13 1
  25   12   31 1
  26   12   32 1
  27   13   14 1
  28   13   33 1
  29   13   34 1
  30   14   35 1
  31   14   36 1
  32   15   37 1
  33   15   38 1
  34   15   39 1
  35   16   17 1
  36   17   18 ar
  37   17   22 ar
  38   18   19 ar
  39   18   40 1
  40   19   20 ar
  41   19   41 1
  42   20   21 ar
  43   20   42 1
  44   21   22 ar
  45   21   43 1
  46   22   44 1

#	End of record

