#	Name: ASD01883890
#	Creating user name:	WinNT
#	Creation time:	15. 06. 2019 19:47

#	Modifying user name:	WinNT
#	Modification time:	15. 06. 2019 19:47

#	Program:	/corina/corina34_cracker 3.40 0067  02.08.2006

@<TRIPOS>MOLECULE
ASD01883890
  51   53    0    0    0
SMALL
NO_CHARGES


@<TRIPOS>ATOM
   1 C1            -0.0170     1.4019     0.0098 C.2     
   2 C2             0.0021    -0.0041     0.0020 C.2     
   3 C3            -1.2244    -0.6972     0.0100 C.2     
   4 C4            -2.3887    -0.0097     0.0247 C.2     
   5 N5            -2.4081     1.3481     0.0318 N.am    
   6 C6            -1.2689     2.0648     0.0312 C.2     
   7 C7            -3.6955     2.0471     0.0468 C.3     
   8 C8            -4.1308     2.2831     1.4944 C.3     
   9 C9            -5.4753     3.0132     1.5101 C.3     
  10 C10           -6.5527     2.1107     0.9055 C.3     
  11 C11           -5.8506     3.3598     2.9523 C.3     
  12 O12           -1.3144     3.2832     0.0387 O.2     
  13 C13            1.2047     2.1489     0.0021 C.1     
  14 N14            2.1739     2.7414    -0.0040 N.1     
  15 C15            1.2833    -0.7401    -0.0146 C.ar    
  16 C16            1.6469    -1.5377     1.0731 C.ar    
  17 C17            2.8418    -2.2226     1.0536 C.ar    
  18 C18            3.6852    -2.1209    -0.0462 C.ar    
  19 C19            3.3274    -1.3281    -1.1300 C.ar    
  20 C20            2.1315    -0.6446    -1.1205 C.ar    
  21 O21            4.8621    -2.7975    -0.0616 O.3     
  22 C22            5.6811    -2.6483    -1.2232 C.3     
  23 C23            6.9364    -3.4661    -1.0612 C.ar    
  24 C24            6.9755    -4.7790    -1.4891 C.ar    
  25 N25            8.0703    -5.5017    -1.3510 N.ar    
  26 C26            9.1641    -5.0061    -0.8041 C.ar    
  27 C27            9.1988    -3.6984    -0.3524 C.ar    
  28 C28            8.0685    -2.9080    -0.4860 C.ar    
  29 Cl29          10.5750    -6.0055    -0.6491 Cl      
  30 H30           -1.2348    -1.7771     0.0039 H       
  31 H31           -3.3228    -0.5518     0.0307 H       
  32 H32           -3.5947     3.0052    -0.4631 H       
  33 H33           -4.4440     1.4409    -0.4634 H       
  34 H34           -4.2316     1.3251     2.0044 H       
  35 H35           -3.3822     2.8893     2.0047 H       
  36 H36           -5.3981     3.9293     0.9246 H       
  37 H37           -7.5106     2.6308     0.9167 H       
  38 H38           -6.2853     1.8638    -0.1219 H       
  39 H39           -6.6299     1.1946     1.4911 H       
  40 H40           -5.0830     4.0027     3.3830 H       
  41 H41           -6.8084     3.8799     2.9635 H       
  42 H42           -5.9278     2.4436     3.5379 H       
  43 H43            0.9921    -1.6170     1.9283 H       
  44 H44            3.1238    -2.8392     1.8943 H       
  45 H45            3.9858    -1.2510    -1.9825 H       
  46 H46            1.8540    -0.0287    -1.9632 H       
  47 H47            5.1336    -2.9929    -2.1004 H       
  48 H48            5.9452    -1.5983    -1.3490 H       
  49 H49            6.0992    -5.2191    -1.9416 H       
  50 H50           10.0965    -3.2979     0.0951 H       
  51 H51            8.0665    -1.8839    -0.1429 H       
@<TRIPOS>BOND
   1    1    2 2
   2    1   13 1
   3    1    6 1
   4    2    3 1
   5    2   15 1
   6    3    4 2
   7    3   30 1
   8    4    5 1
   9    4   31 1
  10    5    7 1
  11    5    6 am
  12    6   12 2
  13    7    8 1
  14    7   32 1
  15    7   33 1
  16    8    9 1
  17    8   34 1
  18    8   35 1
  19    9   10 1
  20    9   11 1
  21    9   36 1
  22   10   37 1
  23   10   38 1
  24   10   39 1
  25   11   40 1
  26   11   41 1
  27   11   42 1
  28   13   14 3
  29   15   16 ar
  30   15   20 ar
  31   16   17 ar
  32   16   43 1
  33   17   18 ar
  34   17   44 1
  35   18   19 ar
  36   18   21 1
  37   19   20 ar
  38   19   45 1
  39   20   46 1
  40   21   22 1
  41   22   23 1
  42   22   47 1
  43   22   48 1
  44   23   24 ar
  45   23   28 ar
  46   24   25 ar
  47   24   49 1
  48   25   26 ar
  49   26   27 ar
  50   26   29 1
  51   27   28 ar
  52   27   50 1
  53   28   51 1

#	End of record

