#	Name: ASD03731610
#	Creating user name:	WinNT
#	Creation time:	15. 06. 2019 20:46

#	Modifying user name:	WinNT
#	Modification time:	15. 06. 2019 20:46

#	Program:	/corina/corina34_cracker 3.40 0067  02.08.2006

@<TRIPOS>MOLECULE
ASD03731610
  37   38    0    0    0
SMALL
NO_CHARGES


@<TRIPOS>ATOM
   1 C1            -0.1360     1.4672     0.0333 C.2     
   2 C2            -0.0850    -0.0063     0.0191 C.ar    
   3 C3             1.1402    -0.6649    -0.1384 C.ar    
   4 C4             1.1828    -2.0446    -0.1505 C.ar    
   5 C5             0.0129    -2.7784    -0.0068 C.ar    
   6 C6            -1.2080    -2.1270     0.1497 C.ar    
   7 C7            -1.2595    -0.7501     0.1688 C.ar    
   8 O8             0.8872     2.1122    -0.0920 O.2     
   9 N9            -1.3174     2.0992     0.1795 N.am    
  10 S10           -1.3747     3.7541     0.1954 S.o2    
  11 O11           -2.7498     4.0553     0.3892 O.2     
  12 O12           -0.3997     4.1293     1.1587 O.2     
  13 C13           -0.8448     4.2414    -1.4696 C.3     
  14 O14            0.0593    -4.1349    -0.0193 O.3     
  15 C15           -0.1523    -4.7699    -1.2027 C.ar    
  16 C16           -0.0461    -6.1559    -1.2792 C.ar    
  17 C17           -0.2629    -6.7993    -2.4864 C.ar    
  18 C18           -0.5842    -6.0656    -3.6137 C.ar    
  19 C19           -0.6896    -4.6875    -3.5390 C.ar    
  20 C20           -0.4796    -4.0394    -2.3337 C.ar    
  21 O21            0.2704    -6.8770    -0.1701 O.3     
  22 C22            0.3621    -8.2949    -0.3225 C.3     
  23 F23           -1.0032    -3.9743    -4.6426 F       
  24 F24           -2.3431    -2.8463     0.2883 F       
  25 F25            2.2788     0.0485    -0.2788 F       
  26 H26            2.1274    -2.5539    -0.2724 H       
  27 H27           -2.2063    -0.2461     0.2951 H       
  28 H28           -2.1341     1.5847     0.2755 H       
  29 H29           -1.5271     3.8177    -2.2066 H       
  30 H30           -0.8528     5.3284    -1.5499 H       
  31 H31            0.1637     3.8709    -1.6529 H       
  32 H32           -0.1805    -7.8744    -2.5474 H       
  33 H33           -0.7529    -6.5689    -4.5543 H       
  34 H34           -0.5669    -2.9645    -2.2759 H       
  35 H35            0.6202    -8.7473     0.6350 H       
  36 H36           -0.5965    -8.6865    -0.6628 H       
  37 H37            1.1326    -8.5324    -1.0560 H       
@<TRIPOS>BOND
   1    1    2 1
   2    1    8 2
   3    1    9 am
   4    2    3 ar
   5    2    7 ar
   6    3    4 ar
   7    3   25 1
   8    4    5 ar
   9    4   26 1
  10    5    6 ar
  11    5   14 1
  12    6    7 ar
  13    6   24 1
  14    7   27 1
  15    9   10 am
  16    9   28 1
  17   10   11 2
  18   10   12 2
  19   10   13 1
  20   13   29 1
  21   13   30 1
  22   13   31 1
  23   14   15 1
  24   15   16 ar
  25   15   20 ar
  26   16   17 ar
  27   16   21 1
  28   17   18 ar
  29   17   32 1
  30   18   19 ar
  31   18   33 1
  32   19   20 ar
  33   19   23 1
  34   20   34 1
  35   21   22 1
  36   22   35 1
  37   22   36 1
  38   22   37 1

#	End of record

