#	Name: ASD02448093
#	Creating user name:	WinNT
#	Creation time:	15. 06. 2019 20:21

#	Modifying user name:	WinNT
#	Modification time:	15. 06. 2019 20:21

#	Program:	/corina/corina34_cracker 3.40 0067  02.08.2006

@<TRIPOS>MOLECULE
ASD02448093
  78   84    0    0    0
SMALL
NO_CHARGES


@<TRIPOS>ATOM
   1 C1            -3.6825    -1.4483    -3.2279 C.ar    
   2 C2            -2.5166    -1.8306    -2.5615 C.ar    
   3 C3            -1.4941    -2.4733    -3.2621 C.ar    
   4 C4            -1.6382    -2.7285    -4.6083 C.ar    
   5 C5            -2.8006    -2.3465    -5.2694 C.ar    
   6 C6            -3.8208    -1.7061    -4.5742 C.ar    
   7 N7            -2.9434    -2.6057    -6.6323 N.am    
   8 C8            -4.1882    -2.7624    -7.3957 C.3     
   9 C9            -3.9103    -3.0319    -8.8394 C.2     
  10 N10           -2.6099    -3.0794    -9.1616 N.am    
  11 S11           -1.7392    -2.8017    -7.7703 S.o2    
  12 O12           -4.7923    -3.1951    -9.6556 O.2     
  13 O13           -1.0904    -1.5470    -7.9252 O.2     
  14 O14           -1.0630    -4.0100    -7.4507 O.2     
  15 N15           -1.4654    -2.1527    -0.2824 N.pl3   
  16 C16           -1.6518    -1.6185     0.9632 C.2     
  17 C17           -2.3649    -1.5550    -1.1171 C.2     
  18 N18           -3.0730    -0.6936    -0.4227 N.2     
  19 C19           -2.6581    -0.7103     0.8577 C.2     
  20 C20           -3.2042     0.1174     1.9615 C.ar    
  21 C21           -4.2431     1.0149     1.7152 C.ar    
  22 C22           -2.6849    -0.0034     3.2486 C.ar    
  23 C23           -3.1962     0.7687     4.2721 C.ar    
  24 C24           -4.2236     1.6620     4.0221 C.ar    
  25 C25           -4.7473     1.7827     2.7463 C.ar    
  26 C26           -0.4799    -3.1715    -0.6526 C.3     
  27 C27            0.2040    -3.6834     0.5889 C.ar    
  28 C28           -0.3723    -4.7052     1.3216 C.ar    
  29 C29            1.4088    -3.1334     0.9883 C.ar    
  30 C30            2.0398    -3.5987     2.1242 C.ar    
  31 C31            1.4610    -4.6242     2.8691 C.ar    
  32 C32            0.2500    -5.1782     2.4591 C.ar    
  33 C33            2.1350    -5.1289     4.0909 C.ar    
  34 C34            1.5563    -6.1545     4.8357 C.ar    
  35 C35            3.3518    -4.5829     4.4945 C.ar    
  36 C36            3.9743    -5.0560     5.6318 C.ar    
  37 C37            3.3927    -6.0707     6.3703 C.ar    
  38 C38            2.1876    -6.6201     5.9714 C.ar    
  39 Cl39          -4.9004     1.1670     0.1157 Cl      
  40 Cl40          -4.8621     2.6295     5.3144 Cl      
  41 C41            4.0777    -6.5839     7.6107 C.3     
  42 C42            3.1635    -6.3784     8.8202 C.3     
  43 C43            3.8589    -6.8994    10.0795 C.3     
  44 C44            4.1606    -8.3904     9.9156 C.3     
  45 C45            5.0748    -8.5959     8.7061 C.3     
  46 C46            4.3794    -8.0749     7.4468 C.3     
  47 H47           -4.4769    -0.9550    -2.6876 H       
  48 H48           -0.5911    -2.7699    -2.7494 H       
  49 H49           -0.8475    -3.2253    -5.1509 H       
  50 H50           -4.7224    -1.4107    -5.0902 H       
  51 H51           -4.7592    -3.5931    -6.9810 H       
  52 H52           -4.7769    -1.8490    -7.3100 H       
  53 H53           -2.2434    -3.2428   -10.0446 H       
  54 H54           -1.1041    -1.8703     1.8594 H       
  55 H55           -1.8837    -0.7005     3.4453 H       
  56 H56           -2.7940     0.6755     5.2701 H       
  57 H57           -5.5490     2.4811     2.5563 H       
  58 H58           -0.9825    -3.9968    -1.1569 H       
  59 H59            0.2611    -2.7341    -1.3215 H       
  60 H60           -1.3112    -5.1336     1.0032 H       
  61 H61            1.8566    -2.3388     0.4101 H       
  62 H62            2.9805    -3.1688     2.4350 H       
  63 H63           -0.2031    -5.9730     3.0330 H       
  64 H64            0.6154    -6.5841     4.5251 H       
  65 H65            3.8071    -3.7911     3.9181 H       
  66 H66            4.9174    -4.6335     5.9455 H       
  67 H67            1.7377    -7.4119     6.5519 H       
  68 H68            5.0095    -6.0393     7.7629 H       
  69 H69            2.9486    -5.3162     8.9369 H       
  70 H70            2.2317    -6.9231     8.6680 H       
  71 H71            4.7907    -6.3548    10.2317 H       
  72 H72            3.2076    -6.7531    10.9412 H       
  73 H73            4.6560    -8.7616    10.8128 H       
  74 H74            3.2287    -8.9351     9.7635 H       
  75 H75            6.0066    -8.0513     8.8583 H       
  76 H76            5.2897    -9.6581     8.5894 H       
  77 H77            3.4475    -8.6196     7.2947 H       
  78 H78            5.0307    -8.2213     6.5852 H       
@<TRIPOS>BOND
   1    1    2 ar
   2    1    6 ar
   3    1   47 1
   4    2    3 ar
   5    2   17 1
   6    3    4 ar
   7    3   48 1
   8    4    5 ar
   9    4   49 1
  10    5    6 ar
  11    5    7 1
  12    6   50 1
  13    7    8 1
  14    7   11 am
  15    8    9 1
  16    8   51 1
  17    8   52 1
  18    9   10 am
  19    9   12 2
  20   10   11 am
  21   10   53 1
  22   11   13 2
  23   11   14 2
  24   15   16 1
  25   15   17 1
  26   15   26 1
  27   16   19 2
  28   16   54 1
  29   17   18 2
  30   18   19 1
  31   19   20 1
  32   20   21 ar
  33   20   22 ar
  34   21   39 1
  35   21   25 ar
  36   22   23 ar
  37   22   55 1
  38   23   24 ar
  39   23   56 1
  40   24   25 ar
  41   24   40 1
  42   25   57 1
  43   26   27 1
  44   26   58 1
  45   26   59 1
  46   27   28 ar
  47   27   29 ar
  48   28   32 ar
  49   28   60 1
  50   29   30 ar
  51   29   61 1
  52   30   31 ar
  53   30   62 1
  54   31   32 ar
  55   31   33 1
  56   32   63 1
  57   33   34 ar
  58   33   35 ar
  59   34   38 ar
  60   34   64 1
  61   35   36 ar
  62   35   65 1
  63   36   37 ar
  64   36   66 1
  65   37   38 ar
  66   37   41 1
  67   38   67 1
  68   41   42 1
  69   41   46 1
  70   41   68 1
  71   42   43 1
  72   42   69 1
  73   42   70 1
  74   43   44 1
  75   43   71 1
  76   43   72 1
  77   44   45 1
  78   44   73 1
  79   44   74 1
  80   45   46 1
  81   45   75 1
  82   45   76 1
  83   46   77 1
  84   46   78 1

#	End of record

