#	Name: ASD03091360
#	Creating user name:	WinNT
#	Creation time:	15. 06. 2019 20:30

#	Modifying user name:	WinNT
#	Modification time:	15. 06. 2019 20:30

#	Program:	/corina/corina34_cracker 3.40 0067  02.08.2006

@<TRIPOS>MOLECULE
ASD03091360
  70   73    0    0    0
SMALL
NO_CHARGES


@<TRIPOS>ATOM
   1 C1            -0.0178     1.4642     0.0101 C.3     
   2 N2             0.0021    -0.0041     0.0020 N.3     
   3 C3             0.6459    -0.5197    -1.2129 C.3     
   4 C4             2.1009    -0.0479    -1.2603 C.3     
   5 C5             2.1366     1.4828    -1.2517 C.3     
   6 C6             1.4174     1.9953    -0.0008 C.3     
   7 C7            -1.3536    -0.5498     0.1516 C.3     
   8 C8             3.5901     1.9604    -1.2375 C.3     
   9 C9             3.6270     3.4854    -1.3546 C.3     
  10 C10            5.0806     3.9629    -1.3405 C.3     
  11 O11            5.1151     5.3873    -1.4499 O.3     
  12 C12            6.3406     5.9768    -1.4524 C.ar    
  13 C13            6.4426     7.3504    -1.5498 C.ar    
  14 C14            7.4870     5.1933    -1.3511 C.ar    
  15 C15            8.7358     5.7740    -1.3522 C.ar    
  16 C16            7.7037     7.9499    -1.5519 C.ar    
  17 C17            8.1703     9.3359    -1.6382 C.2     
  18 C18            8.8602     7.1552    -1.4551 C.ar    
  19 N19            9.9428     8.0089    -1.4832 N.pl3   
  20 C20            9.5115     9.3027    -1.5913 C.2     
  21 C21           11.3452     7.5931    -1.4010 C.3     
  22 C22           10.4092    10.5116    -1.6510 C.3     
  23 N23           10.7527    10.9343    -0.2867 N.3     
  24 C24           11.8086    11.9555    -0.3021 C.3     
  25 C25            9.5645    11.4164     0.4299 C.3     
  26 C26           12.2940    12.1802     1.0693 C.1     
  27 C27           12.6811    12.3593     2.1631 C.1     
  28 C28           -1.3286    -2.0345    -0.1054 C.ar    
  29 C29           -1.1094    -2.9131     0.9390 C.ar    
  30 C30           -1.0864    -4.2750     0.7033 C.ar    
  31 C31           -1.2831    -4.7583    -0.5768 C.ar    
  32 C32           -1.5033    -3.8797    -1.6211 C.ar    
  33 C33           -1.5306    -2.5180    -1.3846 C.ar    
  34 H34           -0.5453     1.8252    -0.8729 H       
  35 H35           -0.5283     1.8156     0.9068 H       
  36 H36            0.6175    -1.6093    -1.2045 H       
  37 H37            0.1153    -0.1495    -2.0901 H       
  38 H38            2.6356    -0.4293    -0.3904 H       
  39 H39            2.5740    -0.4178    -2.1699 H       
  40 H40            1.6357     1.8639    -2.1416 H       
  41 H41            1.4021     3.0851    -0.0105 H       
  42 H42            1.9414     1.6460     0.8890 H       
  43 H43           -1.7111    -0.3622     1.1641 H       
  44 H44           -2.0200    -0.0683    -0.5641 H       
  45 H45            4.0634     1.6561    -0.3040 H       
  46 H46            4.1259     1.5183    -2.0775 H       
  47 H47            3.1537     3.7897    -2.2882 H       
  48 H48            3.0912     3.9274    -0.5146 H       
  49 H49            5.5539     3.6587    -0.4069 H       
  50 H50            5.6164     3.5209    -2.1804 H       
  51 H51            5.5525     7.9573    -1.6242 H       
  52 H52            7.3961     4.1202    -1.2706 H       
  53 H53            9.6185     5.1567    -1.2728 H       
  54 H54            7.5523    10.2174    -1.7239 H       
  55 H55           11.7294     7.4106    -2.4046 H       
  56 H56           11.9302     8.3803    -0.9255 H       
  57 H57           11.4192     6.6791    -0.8118 H       
  58 H58           11.3205    10.2610    -2.1940 H       
  59 H59            9.8924    11.3230    -2.1635 H       
  60 H60           12.6336    11.6158    -0.9284 H       
  61 H61           11.4078    12.8866    -0.7027 H       
  62 H62            8.8256    10.6172     0.4873 H       
  63 H63            9.8471    11.7229     1.4371 H       
  64 H64            9.1391    12.2670    -0.1028 H       
  65 H65           13.0273    12.5196     3.1413 H       
  66 H66           -0.9556    -2.5355     1.9391 H       
  67 H67           -0.9144    -4.9614     1.5192 H       
  68 H68           -1.2645    -5.8223    -0.7611 H       
  69 H69           -1.6567    -4.2573    -2.6212 H       
  70 H70           -1.7026    -1.8316    -2.2004 H       
@<TRIPOS>BOND
   1    1    2 1
   2    1    6 1
   3    1   34 1
   4    1   35 1
   5    2    3 1
   6    2    7 1
   7    3    4 1
   8    3   36 1
   9    3   37 1
  10    4    5 1
  11    4   38 1
  12    4   39 1
  13    5    6 1
  14    5    8 1
  15    5   40 1
  16    6   41 1
  17    6   42 1
  18    7   28 1
  19    7   43 1
  20    7   44 1
  21    8    9 1
  22    8   45 1
  23    8   46 1
  24    9   10 1
  25    9   47 1
  26    9   48 1
  27   10   11 1
  28   10   49 1
  29   10   50 1
  30   11   12 1
  31   12   14 ar
  32   12   13 ar
  33   13   16 ar
  34   13   51 1
  35   14   15 ar
  36   14   52 1
  37   15   18 ar
  38   15   53 1
  39   16   18 ar
  40   16   17 1
  41   17   20 2
  42   17   54 1
  43   18   19 1
  44   19   20 1
  45   19   21 1
  46   20   22 1
  47   21   55 1
  48   21   56 1
  49   21   57 1
  50   22   23 1
  51   22   58 1
  52   22   59 1
  53   23   24 1
  54   23   25 1
  55   24   26 1
  56   24   60 1
  57   24   61 1
  58   25   62 1
  59   25   63 1
  60   25   64 1
  61   26   27 3
  62   27   65 1
  63   28   29 ar
  64   28   33 ar
  65   29   30 ar
  66   29   66 1
  67   30   31 ar
  68   30   67 1
  69   31   32 ar
  70   31   68 1
  71   32   33 ar
  72   32   69 1
  73   33   70 1

#	End of record

