#	Name: ASD03731163
#	Creating user name:	WinNT
#	Creation time:	15. 06. 2019 20:45

#	Modifying user name:	WinNT
#	Modification time:	15. 06. 2019 20:45

#	Program:	/corina/corina34_cracker 3.40 0067  02.08.2006

@<TRIPOS>MOLECULE
ASD03731163
  47   52    0    0    0
SMALL
NO_CHARGES


@<TRIPOS>ATOM
   1 C1            -0.0179     1.4690     0.0101 C.2     
   2 C2             0.0021    -0.0041     0.0020 C.ar    
   3 C3            -1.1968    -0.7229     0.0096 C.ar    
   4 C4            -1.1701    -2.1016     0.0015 C.ar    
   5 C5             0.0396    -2.7737    -0.0142 C.ar    
   6 C6             1.2307    -2.0689    -0.0218 C.ar    
   7 C7             1.2200    -0.6899    -0.0191 C.ar    
   8 O8             1.0243     2.0897     0.0035 O.2     
   9 Cl9           -1.5329     2.3164     0.0219 Cl      
  10 C10            0.0601    -4.2805    -0.0225 C.3     
  11 O11            2.0990    -1.4080    -6.2900 O.3     
  12 C12            2.3281    -1.4712    -7.7101 C.3     
  13 O13            2.8623    -2.7928    -7.9121 O.3     
  14 C14            2.3573    -3.5510    -6.8948 C.ar    
  15 C15            1.8890    -2.6989    -5.8973 C.ar    
  16 C16            2.2567    -4.9216    -6.7372 C.ar    
  17 C17            1.6909    -5.4591    -5.5849 C.ar    
  18 C18            1.2343    -4.5980    -4.5918 C.ar    
  19 C19            1.3276    -3.2308    -4.7487 C.ar    
  20 O20            1.4833    -6.7628    -5.2421 O.3     
  21 C21            0.7118    -5.4660    -3.4785 C.3     
  22 C22            1.2743    -6.8526    -3.8196 C.3     
  23 N23            0.0530    -4.7613    -1.4063 N.am    
  24 C24            1.1676    -4.9936    -2.1280 C.2     
  25 C25           -0.7868    -5.4705    -3.4134 C.ar    
  26 C26           -1.7771    -5.7990    -4.3121 C.ar    
  27 C27           -3.1072    -5.6976    -3.9452 C.ar    
  28 C28           -3.4396    -5.2650    -2.6742 C.ar    
  29 C29           -2.4513    -4.9339    -1.7708 C.ar    
  30 C30           -1.1097    -5.0334    -2.1314 C.ar    
  31 O31            2.3138    -4.8496    -1.7587 O.2     
  32 H32           -2.1416    -0.1998     0.0222 H       
  33 H33           -2.0955    -2.6584     0.0077 H       
  34 H34            2.1709    -2.6003    -0.0340 H       
  35 H35            2.1502    -0.1413    -0.0296 H       
  36 H36            0.9600    -4.6344     0.4805 H       
  37 H37           -0.8198    -4.6587     0.4981 H       
  38 H38            1.3920    -1.3491    -8.2549 H       
  39 H39            3.0514    -0.7150    -8.0153 H       
  40 H40            2.6196    -5.5789    -7.5135 H       
  41 H41            0.9621    -2.5735    -3.9735 H       
  42 H42            0.5508    -7.6328    -3.5830 H       
  43 H43            2.2166    -7.0265    -3.3001 H       
  44 H44           -1.5152    -6.1363    -5.3040 H       
  45 H45           -3.8842    -5.9559    -4.6494 H       
  46 H46           -4.4779    -5.1857    -2.3879 H       
  47 H47           -2.7187    -4.5964    -0.7804 H       
@<TRIPOS>BOND
   1    1    2 1
   2    1    8 2
   3    1    9 1
   4    2    3 ar
   5    2    7 ar
   6    3    4 ar
   7    3   32 1
   8    4    5 ar
   9    4   33 1
  10    5    6 ar
  11    5   10 1
  12    6    7 ar
  13    6   34 1
  14    7   35 1
  15   10   23 1
  16   10   36 1
  17   10   37 1
  18   11   12 1
  19   11   15 1
  20   12   13 1
  21   12   38 1
  22   12   39 1
  23   13   14 1
  24   14   15 ar
  25   14   16 ar
  26   15   19 ar
  27   16   17 ar
  28   16   40 1
  29   17   18 ar
  30   17   20 1
  31   18   19 ar
  32   18   21 1
  33   19   41 1
  34   20   22 1
  35   21   22 1
  36   21   24 1
  37   21   25 1
  38   22   42 1
  39   22   43 1
  40   23   24 am
  41   23   30 1
  42   24   31 2
  43   25   26 ar
  44   25   30 ar
  45   26   27 ar
  46   26   44 1
  47   27   28 ar
  48   27   45 1
  49   28   29 ar
  50   28   46 1
  51   29   30 ar
  52   29   47 1

#	End of record

