#	Name: ASD01180169
#	Creating user name:	WinNT
#	Creation time:	15. 06. 2019 19:06

#	Modifying user name:	WinNT
#	Modification time:	15. 06. 2019 19:06

#	Program:	/corina/corina34_cracker 3.40 0067  02.08.2006

@<TRIPOS>MOLECULE
ASD01180169
  44   44    0    0    0
SMALL
NO_CHARGES


@<TRIPOS>ATOM
   1 C1            -0.0180     1.4730     0.0101 C.2     
   2 C2             0.0021    -0.0041     0.0020 C.ar    
   3 C3             1.2188    -0.6888    -0.0133 C.ar    
   4 C4             1.2303    -2.0682    -0.0203 C.ar    
   5 C5             0.0396    -2.7731    -0.0127 C.ar    
   6 C6            -1.1697    -2.1009     0.0020 C.ar    
   7 C7            -1.1956    -0.7217     0.0154 C.ar    
   8 O8             1.0256     2.0946     0.0035 O.2     
   9 O9            -1.1936     2.1307     0.0193 O.3     
  10 C10            0.0601    -4.2800    -0.0210 C.3     
  11 C11           -0.1699    -4.8009     1.3991 C.3     
  12 C12           -0.0255    -6.3241     1.4132 C.3     
  13 C13            1.4170    -6.7028     1.0718 C.3     
  14 C14           -0.3772    -6.8568     2.8037 C.3     
  15 N15           -1.0026    -4.7793    -0.9038 N.3     
  16 C16           -1.1373     3.5816     0.0269 C.3     
  17 C17           -0.4027     4.0700    -1.2232 C.3     
  18 C18           -2.5589     4.1471     0.0367 C.3     
  19 C19           -0.3909     4.0564     1.2752 C.3     
  20 H20            2.1488    -0.1398    -0.0199 H       
  21 H21            2.1707    -2.5992    -0.0321 H       
  22 H22           -2.0953    -2.6572     0.0071 H       
  23 H23           -2.1401    -0.1983     0.0318 H       
  24 H24            1.0272    -4.6283    -0.3836 H       
  25 H25            0.5660    -4.3600     2.0715 H       
  26 H26           -1.1725    -4.5280     1.7284 H       
  27 H27           -0.6998    -6.7598     0.6759 H       
  28 H28            1.5199    -7.7879     1.0818 H       
  29 H29            1.6676    -6.3232     0.0812 H       
  30 H30            2.0913    -6.2671     1.8091 H       
  31 H31           -1.4049    -6.5870     3.0469 H       
  32 H32           -0.2743    -7.9419     2.8137 H       
  33 H33            0.2971    -6.4211     3.5410 H       
  34 H34           -1.9098    -4.4697    -0.5886 H       
  35 H35           -0.8382    -4.5023    -1.8600 H       
  36 H36           -0.9345     3.7317    -2.1125 H       
  37 H37           -0.3605     5.1592    -1.2175 H       
  38 H38            0.6100     3.6671    -1.2302 H       
  39 H39           -3.0822     3.7991     0.9273 H       
  40 H40           -2.5166     5.2362     0.0424 H       
  41 H41           -3.0907     3.8088    -0.8526 H       
  42 H42            0.6219     3.6535     1.2682 H       
  43 H43           -0.3486     5.1456     1.2809 H       
  44 H44           -0.9142     3.7084     2.1658 H       
@<TRIPOS>BOND
   1    1    2 1
   2    1    8 2
   3    1    9 1
   4    2    3 ar
   5    2    7 ar
   6    3    4 ar
   7    3   20 1
   8    4    5 ar
   9    4   21 1
  10    5    6 ar
  11    5   10 1
  12    6    7 ar
  13    6   22 1
  14    7   23 1
  15    9   16 1
  16   10   11 1
  17   10   15 1
  18   10   24 1
  19   11   12 1
  20   11   25 1
  21   11   26 1
  22   12   13 1
  23   12   14 1
  24   12   27 1
  25   13   28 1
  26   13   29 1
  27   13   30 1
  28   14   31 1
  29   14   32 1
  30   14   33 1
  31   15   34 1
  32   15   35 1
  33   16   17 1
  34   16   19 1
  35   16   18 1
  36   17   36 1
  37   17   37 1
  38   17   38 1
  39   18   39 1
  40   18   40 1
  41   18   41 1
  42   19   42 1
  43   19   43 1
  44   19   44 1

#	End of record

