#	Name: ASD01816686
#	Creating user name:	WinNT
#	Creation time:	15. 06. 2019 19:35

#	Modifying user name:	WinNT
#	Modification time:	15. 06. 2019 19:35

#	Program:	/corina/corina34_cracker 3.40 0067  02.08.2006

@<TRIPOS>MOLECULE
ASD01816686
  57   61    0    0    0
SMALL
NO_CHARGES


@<TRIPOS>ATOM
   1 C1            -0.0167     1.3960     0.0134 C.2     
   2 C2             0.0025    -0.0052    -0.0038 C.2     
   3 C3             1.1989    -0.6602    -0.0251 C.2     
   4 C4             2.3922     0.0815    -0.0294 C.2     
   5 N5             2.3439     1.4491    -0.0119 N.am    
   6 C6             1.1420     2.0927     0.0089 C.2     
   7 C7             3.6230    -0.5886    -0.0512 C.2     
   8 C8             4.7879     0.1231    -0.0556 C.2     
   9 C9             4.7340     1.5284    -0.0381 C.2     
  10 C10            3.4813     2.1731    -0.0160 C.2     
  11 C11            3.6605    -2.0951    -0.0693 C.3     
  12 O12            3.4256     3.3913    -0.0007 O.2     
  13 C13            5.9710     2.3159    -0.0418 C.2     
  14 N14            7.1647     1.6963     0.0459 N.am    
  15 O15            5.9198     3.5292    -0.1240 O.2     
  16 N16            3.7777    -2.5654    -1.4560 N.3     
  17 C17            4.0545    -4.0068    -1.5012 C.3     
  18 C18            4.3138    -4.4326    -2.9481 C.3     
  19 C19            3.0850    -4.1030    -3.8001 C.3     
  20 C20            2.7895    -2.6041    -3.6971 C.3     
  21 C21            2.5743    -2.2313    -2.2285 C.3     
  22 C22            3.3569    -4.4651    -5.2374 C.ar    
  23 N23            4.5948    -4.6964    -5.6282 N.ar    
  24 C24            1.9268    -4.8676    -3.3095 C.1     
  25 N25            1.0329    -5.4576    -2.9309 N.1     
  26 C26            4.8800    -5.0162    -6.8755 C.ar    
  27 C27            3.8811    -5.1203    -7.8246 C.ar    
  28 C28            2.5667    -4.8842    -7.4510 C.ar    
  29 C29            2.3051    -4.5564    -6.1296 C.ar    
  30 C30            8.4025     2.4710    -0.0711 C.3     
  31 C31            9.6588     1.8993     0.5891 C.3     
  32 C32            9.5224     1.8872    -0.9348 C.3     
  33 H33           -0.9603     1.9212     0.0258 H       
  34 H34           -0.9228    -0.5622     0.0001 H       
  35 H35            1.2286    -1.7397    -0.0382 H       
  36 H36            1.1153     3.1723     0.0225 H       
  37 H37            5.7397    -0.3869    -0.0720 H       
  38 H38            4.5177    -2.4441     0.5065 H       
  39 H39            2.7434    -2.4866     0.3709 H       
  40 H40            7.2041     0.7373     0.1865 H       
  41 H41            4.9330    -4.2271    -0.8948 H       
  42 H42            3.1967    -4.5538    -1.1098 H       
  43 H43            5.1799    -3.8962    -3.3357 H       
  44 H44            4.5038    -5.5054    -2.9832 H       
  45 H45            3.6316    -2.0389    -4.0964 H       
  46 H46            1.8904    -2.3704    -4.2674 H       
  47 H47            1.7235    -2.7866    -1.8337 H       
  48 H48            2.3778    -1.1620    -2.1503 H       
  49 H49            5.9062    -5.1985    -7.1585 H       
  50 H50            4.1210    -5.3819    -8.8446 H       
  51 H51            1.7654    -4.9580    -8.1713 H       
  52 H52            1.2932    -4.3663    -5.8034 H       
  53 H53            8.2812     3.5542    -0.0686 H       
  54 H54           10.3642     2.6065     1.0256 H       
  55 H55            9.5643     0.9468     1.1105 H       
  56 H56            9.3381     0.9266    -1.4159 H       
  57 H57           10.1380     2.5863    -1.5008 H       
@<TRIPOS>BOND
   1    1    2 1
   2    1    6 2
   3    1   33 1
   4    2    3 2
   5    2   34 1
   6    3    4 1
   7    3   35 1
   8    4    5 1
   9    4    7 2
  10    5    6 1
  11    5   10 am
  12    6   36 1
  13    7    8 1
  14    7   11 1
  15    8    9 2
  16    8   37 1
  17    9   10 1
  18    9   13 1
  19   10   12 2
  20   11   16 1
  21   11   38 1
  22   11   39 1
  23   13   14 am
  24   13   15 2
  25   14   30 1
  26   14   40 1
  27   16   17 1
  28   16   21 1
  29   17   18 1
  30   17   41 1
  31   17   42 1
  32   18   19 1
  33   18   43 1
  34   18   44 1
  35   19   20 1
  36   19   22 1
  37   19   24 1
  38   20   21 1
  39   20   45 1
  40   20   46 1
  41   21   47 1
  42   21   48 1
  43   22   23 ar
  44   22   29 ar
  45   23   26 ar
  46   24   25 3
  47   26   27 ar
  48   26   49 1
  49   27   28 ar
  50   27   50 1
  51   28   29 ar
  52   28   51 1
  53   29   52 1
  54   30   31 1
  55   30   32 1
  56   30   53 1
  57   31   32 1
  58   31   54 1
  59   31   55 1
  60   32   56 1
  61   32   57 1

#	End of record

