#	Name: ASD03082300
#	Creating user name:	WinNT
#	Creation time:	15. 06. 2019 20:27

#	Modifying user name:	WinNT
#	Modification time:	15. 06. 2019 20:27

#	Program:	/corina/corina34_cracker 3.40 0067  02.08.2006

@<TRIPOS>MOLECULE
ASD03082300
  46   48    0    0    0
SMALL
NO_CHARGES


@<TRIPOS>ATOM
   1 N1            -0.0132     1.4261     0.0780 N.pl3   
   2 N2            -0.0360     0.0262    -0.0310 N.2     
   3 C3             1.1987    -0.3905     0.1346 C.2     
   4 N4             1.9895     0.6635     0.3400 N.2     
   5 C5             1.2735     1.7694     0.3090 C.2     
   6 N6             1.6158    -1.7225     0.1016 N.pl3   
   7 C7             2.9729    -2.0341     0.2367 C.ar    
   8 C8             3.4922    -3.1623    -0.3890 C.ar    
   9 C9             4.8313    -3.4759    -0.2599 C.ar    
  10 C10            5.6652    -2.6698     0.4933 C.ar    
  11 C11            5.1520    -1.5332     1.1263 C.ar    
  12 C12            3.7993    -1.2154     0.9890 C.ar    
  13 C13            1.7878     3.1449     0.4940 C.ar    
  14 C14           -1.1563     2.3346    -0.0415 C.3     
  15 C15            0.9278     4.1939     0.8356 C.ar    
  16 C16            1.4498     5.4611     0.9983 C.ar    
  17 N17            2.7388     5.6886     0.8357 N.ar    
  18 C18            3.5839     4.7281     0.5137 C.ar    
  19 C19            3.1485     3.4308     0.3379 C.ar    
  20 C20           -1.7978     2.5152     1.3102 C.2     
  21 N21           -2.8749     3.3142     1.4436 N.am    
  22 C22           -3.4985     3.4898     2.7575 C.3     
  23 O23           -1.3447     1.9416     2.2780 O.2     
  24 C24           -3.4222     4.0072     0.2746 C.3     
  25 C25            5.0458     5.0512     0.3415 C.3     
  26 F26            6.9741    -2.9803     0.6180 F       
  27 C27            6.0115    -0.6957     1.9077 C.1     
  28 N28            6.6933    -0.0314     2.5276 N.1     
  29 H29            0.9645    -2.4319    -0.0149 H       
  30 H30            2.8458    -3.7960    -0.9781 H       
  31 H31            5.2282    -4.3535    -0.7485 H       
  32 H32            3.3976    -0.3367     1.4715 H       
  33 H33           -0.8153     3.3006    -0.4138 H       
  34 H34           -1.8838     1.9139    -0.7356 H       
  35 H35           -0.1288     4.0150     0.9695 H       
  36 H36            0.7938     6.2775     1.2619 H       
  37 H37            3.8461     2.6494     0.0747 H       
  38 H38           -3.0362     4.3340     3.2692 H       
  39 H39           -4.5642     3.6807     2.6314 H       
  40 H40           -3.3590     2.5854     3.3497 H       
  41 H41           -4.1748     3.3784    -0.2011 H       
  42 H42           -3.8788     4.9455     0.5892 H       
  43 H43           -2.6201     4.2131    -0.4342 H       
  44 H44            5.5583     4.9360     1.2966 H       
  45 H45            5.4841     4.3727    -0.3903 H       
  46 H46            5.1522     6.0788    -0.0063 H       
@<TRIPOS>BOND
   1    1    2 1
   2    1    5 1
   3    1   14 1
   4    2    3 2
   5    3    4 1
   6    3    6 1
   7    4    5 2
   8    5   13 1
   9    6    7 1
  10    6   29 1
  11    7    8 ar
  12    7   12 ar
  13    8    9 ar
  14    8   30 1
  15    9   10 ar
  16    9   31 1
  17   10   11 ar
  18   10   26 1
  19   11   12 ar
  20   11   27 1
  21   12   32 1
  22   13   15 ar
  23   13   19 ar
  24   14   20 1
  25   14   33 1
  26   14   34 1
  27   15   16 ar
  28   15   35 1
  29   16   17 ar
  30   16   36 1
  31   17   18 ar
  32   18   19 ar
  33   18   25 1
  34   19   37 1
  35   20   21 am
  36   20   23 2
  37   21   22 1
  38   21   24 1
  39   22   38 1
  40   22   39 1
  41   22   40 1
  42   24   41 1
  43   24   42 1
  44   24   43 1
  45   25   44 1
  46   25   45 1
  47   25   46 1
  48   27   28 3

#	End of record

