#	Name: ASD03090362
#	Creating user name:	WinNT
#	Creation time:	15. 06. 2019 20:28

#	Modifying user name:	WinNT
#	Modification time:	15. 06. 2019 20:28

#	Program:	/corina/corina34_cracker 3.40 0067  02.08.2006

@<TRIPOS>MOLECULE
ASD03090362
  35   37    0    0    0
SMALL
NO_CHARGES


@<TRIPOS>ATOM
   1 C1            -0.0180     1.4742     0.0101 C.2     
   2 C2             0.0021    -0.0041     0.0020 C.ar    
   3 C3             1.2173    -0.6995    -0.0133 C.ar    
   4 C4             1.1813    -2.0826    -0.0199 C.ar    
   5 C5            -0.0424    -2.7281    -0.0112 C.ar    
   6 N6            -1.1719    -2.0465     0.0032 N.ar    
   7 C7            -1.1895    -0.7297     0.0154 C.ar    
   8 O8             1.0263     2.0962     0.0035 O.2     
   9 N9            -1.1942     2.1321     0.0193 N.am    
  10 C10           -0.0858    -4.2345    -0.0189 C.3     
  11 F11           -0.0861    -4.7077     1.2977 F       
  12 F12           -1.2475    -4.6642    -0.6692 F       
  13 F13            1.0360    -4.7299    -0.6922 F       
  14 C14           -1.2141     3.5970     0.0274 C.3     
  15 N15           -6.5411     5.4010     0.3357 N.pl3   
  16 C16           -6.6944     5.4475     1.6946 C.2     
  17 C17           -5.5590     5.0597     2.2967 C.2     
  18 C18           -4.6003     4.7386     1.2367 C.ar    
  19 C19           -3.2778     4.2907     1.2273 C.ar    
  20 C20           -2.6415     4.0799     0.0368 C.ar    
  21 C21           -3.2994     4.3076    -1.1644 C.ar    
  22 C22           -4.6038     4.7500    -1.1782 C.ar    
  23 C23           -5.2711     4.9712     0.0224 C.ar    
  24 H24            2.1585    -0.1699    -0.0202 H       
  25 H25            2.0987    -2.6523    -0.0321 H       
  26 H26           -2.1345    -0.2071     0.0314 H       
  27 H27           -2.0276     1.6358     0.0206 H       
  28 H28           -0.7010     3.9624     0.9169 H       
  29 H29           -0.7094     3.9721    -0.8630 H       
  30 H30           -7.2264     5.6324    -0.3106 H       
  31 H31           -7.5953     5.7515     2.2068 H       
  32 H32           -5.3854     4.9964     3.3608 H       
  33 H33           -2.7594     4.1123     2.1578 H       
  34 H34           -2.7831     4.1365    -2.0975 H       
  35 H35           -5.1068     4.9245    -2.1178 H       
@<TRIPOS>BOND
   1    1    2 1
   2    1    8 2
   3    1    9 am
   4    2    3 ar
   5    2    7 ar
   6    3    4 ar
   7    3   24 1
   8    4    5 ar
   9    4   25 1
  10    5    6 ar
  11    5   10 1
  12    6    7 ar
  13    7   26 1
  14    9   14 1
  15    9   27 1
  16   10   11 1
  17   10   12 1
  18   10   13 1
  19   14   20 1
  20   14   28 1
  21   14   29 1
  22   15   16 1
  23   15   23 1
  24   15   30 1
  25   16   17 2
  26   16   31 1
  27   17   18 1
  28   17   32 1
  29   18   19 ar
  30   18   23 ar
  31   19   20 ar
  32   19   33 1
  33   20   21 ar
  34   21   22 ar
  35   21   34 1
  36   22   23 ar
  37   22   35 1

#	End of record

