#	Name: ASD03331052
#	Creating user name:	WinNT
#	Creation time:	15. 06. 2019 20:38

#	Modifying user name:	WinNT
#	Modification time:	15. 06. 2019 20:38

#	Program:	/corina/corina34_cracker 3.40 0067  02.08.2006

@<TRIPOS>MOLECULE
ASD03331052
  74   78    0    0    0
SMALL
NO_CHARGES


@<TRIPOS>ATOM
   1 N1            -0.7041     1.6252    -0.4071 N.pl3   
   2 C2            -0.5818     0.3011    -0.1236 C.2     
   3 C3             0.7005    -0.4061     0.2297 C.3     
   4 N4             1.4181     0.3767     1.2479 N.3     
   5 C5             2.3051     1.3641     0.6298 C.3     
   6 C6             1.7082     1.8960    -0.6700 C.3     
   7 C7             0.3837     2.6071    -0.3795 C.3     
   8 C8            -2.0148     1.8600    -0.7050 C.2     
   9 N9            -2.6782     0.7332    -0.5928 N.2     
  10 C10           -1.8229    -0.2486    -0.2324 C.2     
  11 C11           -2.1707    -1.6614     0.0008 C.2     
  12 O12           -1.3072    -2.4551     0.3229 O.2     
  13 N13           -3.4457    -2.0741    -0.1427 N.am    
  14 C14            2.1628    -0.5022     2.1595 C.3     
  15 C15           -5.0367    -3.8240    -0.6861 C.2     
  16 C16           -3.7914    -3.4787     0.0891 C.3     
  17 C17           -4.0415    -3.7027     1.5819 C.3     
  18 C18           -4.4684    -5.1532     1.8154 C.3     
  19 O19           -5.8601    -2.9660    -0.9246 O.2     
  20 C20           -2.7570    -3.4171     2.3626 C.3     
  21 C21           -5.1490    -2.7617     2.0603 C.3     
  22 C22           -4.2134    -6.1230    -0.9348 C.3     
  23 N23           -5.2355    -5.0864    -1.1145 N.am    
  24 C24           -6.4875    -5.4808    -1.7814 C.3     
  25 C25           -6.1486    -5.8823    -3.2161 C.3     
  26 C26           -4.9667    -6.8152    -3.2468 C.ar    
  27 C27           -4.7875    -7.5907    -4.3862 C.ar    
  28 C28           -3.7207    -8.4592    -4.4832 C.ar    
  29 C29           -2.8195    -8.5608    -3.4395 C.ar    
  30 C30           -2.9969    -7.7950    -2.3058 C.ar    
  31 C31           -4.0727    -6.9231    -2.2054 C.ar    
  32 C32           -2.5917     3.1665    -1.0895 C.ar    
  33 C33           -3.4486     3.2588    -2.1896 C.ar    
  34 C34           -3.9844     4.4829    -2.5428 C.ar    
  35 C35           -3.6739     5.6140    -1.8102 C.ar    
  36 C36           -2.8251     5.5286    -0.7196 C.ar    
  37 C37           -2.2875     4.3108    -0.3523 C.ar    
  38 F38           -3.7522     2.1545    -2.9062 F       
  39 Cl39          -2.4412     6.9550     0.1924 Cl      
  40 H40            0.4735    -1.3964     0.6246 H       
  41 H41            1.3214    -0.5014    -0.6611 H       
  42 H42            2.4546     2.1936     1.3210 H       
  43 H43            3.2673     0.8980     0.4176 H       
  44 H44            2.4043     2.5992    -1.1274 H       
  45 H45            1.5314     1.0659    -1.3540 H       
  46 H46            0.2056     3.3697    -1.1376 H       
  47 H47            0.4288     3.0735     0.6046 H       
  48 H48           -4.1343    -1.4411    -0.3995 H       
  49 H49            2.8383    -1.1346     1.5834 H       
  50 H50            2.7396     0.1039     2.8581 H       
  51 H51            1.4629    -1.1280     2.7133 H       
  52 H52           -2.9699    -4.1144    -0.2410 H       
  53 H53           -3.6727    -5.8231     1.4897 H       
  54 H54           -4.6624    -5.3084     2.8767 H       
  55 H55           -5.3744    -5.3614     1.2463 H       
  56 H56           -2.4528    -2.3837     2.1962 H       
  57 H57           -2.9351    -3.5767     3.4260 H       
  58 H58           -1.9680    -4.0875     2.0218 H       
  59 H59           -6.0640    -2.9651     1.5041 H       
  60 H60           -5.3271    -2.9212     3.1237 H       
  61 H61           -4.8448    -1.7283     1.8939 H       
  62 H62           -3.2594    -5.6540    -0.6939 H       
  63 H63           -4.5074    -6.7849    -0.1201 H       
  64 H64           -6.9341    -6.3259    -1.2576 H       
  65 H65           -7.1824    -4.6410    -1.7878 H       
  66 H66           -7.0097    -6.3800    -3.6621 H       
  67 H67           -5.9141    -4.9877    -3.7929 H       
  68 H68           -5.4901    -7.5126    -5.2026 H       
  69 H69           -3.5897    -9.0586    -5.3719 H       
  70 H70           -1.9804    -9.2370    -3.5114 H       
  71 H71           -2.2938    -7.8746    -1.4899 H       
  72 H72           -4.6466     4.5564    -3.3929 H       
  73 H73           -4.0951     6.5683    -2.0902 H       
  74 H74           -1.6295     4.2453     0.5016 H       
@<TRIPOS>BOND
   1    1    2 1
   2    1    7 1
   3    1    8 1
   4    2    3 1
   5    2   10 2
   6    3    4 1
   7    3   40 1
   8    3   41 1
   9    4    5 1
  10    4   14 1
  11    5    6 1
  12    5   42 1
  13    5   43 1
  14    6    7 1
  15    6   44 1
  16    6   45 1
  17    7   46 1
  18    7   47 1
  19    8    9 2
  20    8   32 1
  21    9   10 1
  22   10   11 1
  23   11   12 2
  24   11   13 am
  25   13   16 1
  26   13   48 1
  27   14   49 1
  28   14   50 1
  29   14   51 1
  30   15   19 2
  31   15   23 am
  32   15   16 1
  33   16   17 1
  34   16   52 1
  35   17   18 1
  36   17   20 1
  37   17   21 1
  38   18   53 1
  39   18   54 1
  40   18   55 1
  41   20   56 1
  42   20   57 1
  43   20   58 1
  44   21   59 1
  45   21   60 1
  46   21   61 1
  47   22   23 1
  48   22   31 1
  49   22   62 1
  50   22   63 1
  51   23   24 1
  52   24   25 1
  53   24   64 1
  54   24   65 1
  55   25   26 1
  56   25   66 1
  57   25   67 1
  58   26   27 ar
  59   26   31 ar
  60   27   28 ar
  61   27   68 1
  62   28   29 ar
  63   28   69 1
  64   29   30 ar
  65   29   70 1
  66   30   31 ar
  67   30   71 1
  68   32   33 ar
  69   32   37 ar
  70   33   34 ar
  71   33   38 1
  72   34   35 ar
  73   34   72 1
  74   35   36 ar
  75   35   73 1
  76   36   37 ar
  77   36   39 1
  78   37   74 1

#	End of record

