#	Name: ASD02500881
#	Creating user name:	WinNT
#	Creation time:	15. 06. 2019 20:23

#	Modifying user name:	WinNT
#	Modification time:	15. 06. 2019 20:23

#	Program:	/corina/corina34_cracker 3.40 0067  02.08.2006

@<TRIPOS>MOLECULE
ASD02500881
  32   33    0    0    0
SMALL
NO_CHARGES


@<TRIPOS>ATOM
   1 S1            -0.0282     1.6343    -0.8348 S.3     
   2 C2            -0.0022    -0.0643    -0.3209 C.2     
   3 C3             1.4217    -0.4188    -0.3329 C.2     
   4 N4             2.2366     0.5569    -0.6979 N.am    
   5 C5             1.7305     1.7531    -1.0188 C.2     
   6 S6             2.6130     3.1343    -1.5131 S.2     
   7 C7            -1.0566    -0.8537     0.0076 C.2     
   8 O8             1.8227    -1.5272    -0.0294 O.2     
   9 C9             3.6829     0.3296    -0.7499 C.3     
  10 C10            4.0654    -0.1603    -2.1227 C.2     
  11 O11            3.2169    -0.3049    -2.9707 O.2     
  12 O12            5.3487    -0.4362    -2.4035 O.3     
  13 C13           -2.4009    -0.2737     0.1202 C.ar    
  14 C14           -3.5310    -1.0946     0.0166 C.ar    
  15 C15           -4.7926    -0.5436     0.1238 C.ar    
  16 C16           -4.9403     0.8267     0.3341 C.ar    
  17 C17           -3.8207     1.6427     0.4366 C.ar    
  18 C18           -2.5568     1.1004     0.3371 C.ar    
  19 O19           -6.1831     1.3659     0.4387 O.3     
  20 O20           -5.8918    -1.3381     0.0237 O.3     
  21 C21           -5.6668    -2.7326    -0.1922 C.3     
  22 Cl22          -4.0132     3.3481     0.6980 Cl      
  23 H23           -0.9068    -1.9082     0.1861 H       
  24 H24            4.2052     1.2628    -0.5386 H       
  25 H25            3.9602    -0.4182    -0.0069 H       
  26 H26            5.5453    -0.7476    -3.2976 H       
  27 H27           -3.4159    -2.1559    -0.1470 H       
  28 H28           -1.6879     1.7368     0.4175 H       
  29 H29           -6.5268     1.3896     1.3422 H       
  30 H30           -5.1187    -2.8723    -1.1240 H       
  31 H31           -5.0859    -3.1394     0.6355 H       
  32 H32           -6.6243    -3.2500    -0.2529 H       
@<TRIPOS>BOND
   1    1    2 1
   2    1    5 1
   3    2    3 1
   4    2    7 2
   5    3    4 am
   6    3    8 2
   7    4    5 am
   8    4    9 1
   9    5    6 2
  10    7   13 1
  11    7   23 1
  12    9   10 1
  13    9   24 1
  14    9   25 1
  15   10   11 2
  16   10   12 1
  17   12   26 1
  18   13   14 ar
  19   13   18 ar
  20   14   15 ar
  21   14   27 1
  22   15   16 ar
  23   15   20 1
  24   16   17 ar
  25   16   19 1
  26   17   18 ar
  27   17   22 1
  28   18   28 1
  29   19   29 1
  30   20   21 1
  31   21   30 1
  32   21   31 1
  33   21   32 1

#	End of record

