#	Name: ASD01918502
#	Creating user name:	WinNT
#	Creation time:	15. 06. 2019 20:11

#	Modifying user name:	WinNT
#	Modification time:	15. 06. 2019 20:11

#	Program:	/corina/corina34_cracker 3.40 0067  02.08.2006

@<TRIPOS>MOLECULE
ASD01918502
  38   41    0    0    0
SMALL
NO_CHARGES


@<TRIPOS>ATOM
   1 F1             0.1163    -0.0007     0.0492 F       
   2 C2             0.0822     1.3499     0.0499 C.ar    
   3 C3            -1.1342     2.0211     0.0825 C.ar    
   4 C4            -1.1251     3.4047     0.0825 C.ar    
   5 C5             0.0979     4.0748     0.0500 C.ar    
   6 N6             1.2395     3.3962     0.0190 N.ar    
   7 C7             1.2604     2.0800     0.0239 C.ar    
   8 C8             0.1239     5.5528     0.0496 C.2     
   9 N9            -0.9298     6.3384     0.0835 N.2     
  10 C10           -0.5131     7.6054     0.0699 C.2     
  11 C11           -1.3494     8.8626     0.0885 C.3     
  12 N12           -0.4351     9.9933     0.3299 N.am    
  13 C13            0.8351    10.0347    -0.4100 C.3     
  14 C14            1.6982     8.8371     0.0068 C.3     
  15 C15            0.8364     7.6010     0.0291 C.2     
  16 O16            1.2309     6.3191     0.0202 O.3     
  17 C17           -0.7554    10.9653     1.2069 C.2     
  18 O18            0.0536    11.8317     1.4761 O.2     
  19 C19           -2.0908    10.9778     1.8414 C.ar    
  20 C20           -2.2370    11.4181     3.1576 C.ar    
  21 C21           -3.4859    11.4280     3.7443 C.ar    
  22 C22           -4.5921    11.0028     3.0312 C.ar    
  23 C23           -4.4545    10.5646     1.7247 C.ar    
  24 Cl24          -5.8490    10.0334     0.8376 Cl      
  25 C25           -3.2112    10.5548     1.1245 C.ar    
  26 H26           -2.0657     1.4750     0.1069 H       
  27 H27           -2.0521     3.9583     0.1070 H       
  28 H28            2.2079     1.5620     0.0031 H       
  29 H29           -1.8503     8.9891    -0.8713 H       
  30 H30           -2.0876     8.8052     0.8884 H       
  31 H31            0.6351     9.9848    -1.4803 H       
  32 H32            1.3612    10.9610    -0.1792 H       
  33 H33            2.5090     8.7042    -0.7095 H       
  34 H34            2.1111     9.0125     1.0003 H       
  35 H35           -1.3743    11.7501     3.7160 H       
  36 H36           -3.5998    11.7682     4.7630 H       
  37 H37           -5.5672    11.0123     3.4953 H       
  38 H38           -3.1053    10.2172     0.1042 H       
@<TRIPOS>BOND
   1    1    2 1
   2    2    7 ar
   3    2    3 ar
   4    3    4 ar
   5    3   26 1
   6    4    5 ar
   7    4   27 1
   8    5    6 ar
   9    5    8 1
  10    6    7 ar
  11    7   28 1
  12    8   16 1
  13    8    9 2
  14    9   10 1
  15   10   15 2
  16   10   11 1
  17   11   12 1
  18   11   29 1
  19   11   30 1
  20   12   13 1
  21   12   17 am
  22   13   14 1
  23   13   31 1
  24   13   32 1
  25   14   15 1
  26   14   33 1
  27   14   34 1
  28   15   16 1
  29   17   18 2
  30   17   19 1
  31   19   25 ar
  32   19   20 ar
  33   20   21 ar
  34   20   35 1
  35   21   22 ar
  36   21   36 1
  37   22   23 ar
  38   22   37 1
  39   23   24 1
  40   23   25 ar
  41   25   38 1

#	End of record

