#	Name: ASD06390026
#	Creating user name:	WinNT
#	Creation time:	15. 06. 2019 21:06

#	Modifying user name:	WinNT
#	Modification time:	15. 06. 2019 21:06

#	Program:	/corina/corina34_cracker 3.40 0067  02.08.2006

@<TRIPOS>MOLECULE
ASD06390026
  45   46    0    0    0
SMALL
NO_CHARGES


@<TRIPOS>ATOM
   1 Cl1            5.5505     5.0817    -0.0243 Cl      
   2 Cl2            7.9478     3.0904    -0.0574 Cl      
   3 O3             0.0021    -0.0041     0.0020 O.2     
   4 C4            -0.0144     1.2086     0.0087 C.2     
   5 C5             1.2803     1.9798     0.0005 C.3     
   6 N6             2.4066     1.0431    -0.0153 N.pl3   
   7 C7             3.7203     1.5277    -0.0253 C.ar    
   8 C8             3.9568     2.8941    -0.0202 C.ar    
   9 C9             5.2556     3.3710    -0.0301 C.ar    
  10 C10            6.3202     2.4866    -0.0450 C.ar    
  11 C11            6.0899     1.1217    -0.0506 C.ar    
  12 C12            4.7926     0.6381    -0.0345 C.ar    
  13 O13            4.5654    -0.7031    -0.0339 O.3     
  14 C14            5.7123    -1.5555    -0.0437 C.3     
  15 N15           -1.1906     1.8666     0.0178 N.am    
  16 C16           -2.4610     1.1276     0.0199 C.3     
  17 C17           -3.2954     1.5908     1.2204 C.3     
  18 N18           -3.3306     3.0600     1.2291 N.am    
  19 C19           -4.5068     3.7180     1.2392 C.2     
  20 C20           -4.5272     5.2248     1.2480 C.3     
  21 C21           -5.9765     5.7151     1.2585 C.3     
  22 O22           -5.5488     3.0973     1.2411 O.2     
  23 C23           -2.0602     3.7989     1.2271 C.3     
  24 C24           -1.2257     3.3357     0.0322 C.3     
  25 H25            1.3211     2.6120    -0.8866 H       
  26 H26            1.3381     2.6024     0.8933 H       
  27 H27            2.2423     0.0871    -0.0189 H       
  28 H28            3.1275     3.5858    -0.0089 H       
  29 H29            6.9224     0.4338    -0.0627 H       
  30 H30            5.3909    -2.5970    -0.0421 H       
  31 H31            6.3033    -1.3590    -0.9382 H       
  32 H32            6.3174    -1.3605     0.8417 H       
  33 H33           -3.0039     1.3309    -0.9032 H       
  34 H34           -2.2625     0.0591     0.1027 H       
  35 H35           -4.3096     1.2011     1.1332 H       
  36 H36           -2.8405     1.2303     2.1430 H       
  37 H37           -4.0137     5.5899     2.1374 H       
  38 H38           -4.0231     5.6002     0.3575 H       
  39 H39           -6.4901     5.3500     0.3691 H       
  40 H40           -6.4806     5.3397     2.1490 H       
  41 H41           -5.9913     6.8050     1.2649 H       
  42 H42           -2.2587     4.8675     1.1442 H       
  43 H43           -1.5173     3.5957     2.1502 H       
  44 H44           -0.2117     3.7250     0.1232 H       
  45 H45           -1.6787     3.6998    -0.8900 H       
@<TRIPOS>BOND
   1    1    9 1
   2    2   10 1
   3    3    4 2
   4    4    5 1
   5    4   15 am
   6    5    6 1
   7    5   25 1
   8    5   26 1
   9    6    7 1
  10    6   27 1
  11    7    8 ar
  12    7   12 ar
  13    8    9 ar
  14    8   28 1
  15    9   10 ar
  16   10   11 ar
  17   11   12 ar
  18   11   29 1
  19   12   13 1
  20   13   14 1
  21   14   30 1
  22   14   31 1
  23   14   32 1
  24   15   16 1
  25   15   24 1
  26   16   17 1
  27   16   33 1
  28   16   34 1
  29   17   18 1
  30   17   35 1
  31   17   36 1
  32   18   19 am
  33   18   23 1
  34   19   20 1
  35   19   22 2
  36   20   21 1
  37   20   37 1
  38   20   38 1
  39   21   39 1
  40   21   40 1
  41   21   41 1
  42   23   24 1
  43   23   42 1
  44   23   43 1
  45   24   44 1
  46   24   45 1

#	End of record

