#	Name: ASD01913083
#	Creating user name:	WinNT
#	Creation time:	15. 06. 2019 20:00

#	Modifying user name:	WinNT
#	Modification time:	15. 06. 2019 20:00

#	Program:	/corina/corina34_cracker 3.40 0067  02.08.2006

@<TRIPOS>MOLECULE
ASD01913083
  32   33    0    0    0
SMALL
NO_CHARGES


@<TRIPOS>ATOM
   1 N1            -0.0169     1.3965     0.0097 N.2     
   2 N2             0.0021    -0.0041     0.0020 N.pl3   
   3 C3             1.2284     1.8226     0.0001 C.2     
   4 C4             2.0722     0.6950    -0.0140 C.2     
   5 C5             1.2908    -0.4070    -0.0125 C.2     
   6 C6             1.7727    -1.8348    -0.0240 C.3     
   7 C7             1.6661     3.2408     0.0031 C.ar    
   8 C8             0.7202     4.2630     0.0177 C.ar    
   9 C9             1.1337     5.5844     0.0209 C.ar    
  10 C10            2.4899     5.8880     0.0096 C.ar    
  11 C11            3.4297     4.8719    -0.0053 C.ar    
  12 C12            3.0242     3.5524    -0.0028 C.ar    
  13 F13            2.8919     7.1779     0.0128 F       
  14 O14            0.2131     6.5847     0.0347 O.3     
  15 C15            0.8237    -2.7000     0.8077 C.3     
  16 C16            1.8036    -2.3510    -1.4639 C.3     
  17 C17           -1.1631     6.1999     0.0453 C.3     
  18 H18           -0.7755    -0.5839     0.0066 H       
  19 H19            3.1521     0.7089    -0.0242 H       
  20 H20            2.7752    -1.8834     0.4011 H       
  21 H21           -0.3333     4.0255     0.0261 H       
  22 H22            4.4826     5.1119    -0.0144 H       
  23 H23            3.7596     2.7615    -0.0145 H       
  24 H24            1.1722    -3.7328     0.7994 H       
  25 H25            0.8016    -2.3323     1.8336 H       
  26 H26           -0.1789    -2.6515     0.3827 H       
  27 H27            2.4797    -1.7346    -2.0564 H       
  28 H28            2.1522    -3.3838    -1.4722 H       
  29 H29            0.8011    -2.3025    -1.8889 H       
  30 H30           -1.3828     5.6119    -0.8459 H       
  31 H31           -1.3664     5.6025     0.9340 H       
  32 H32           -1.7897     7.0917     0.0558 H       
@<TRIPOS>BOND
   1    1    2 1
   2    1    3 2
   3    2    5 1
   4    2   18 1
   5    3    4 1
   6    3    7 1
   7    4    5 2
   8    4   19 1
   9    5    6 1
  10    6   15 1
  11    6   16 1
  12    6   20 1
  13    7    8 ar
  14    7   12 ar
  15    8    9 ar
  16    8   21 1
  17    9   10 ar
  18    9   14 1
  19   10   11 ar
  20   10   13 1
  21   11   12 ar
  22   11   22 1
  23   12   23 1
  24   14   17 1
  25   15   24 1
  26   15   25 1
  27   15   26 1
  28   16   27 1
  29   16   28 1
  30   16   29 1
  31   17   30 1
  32   17   31 1
  33   17   32 1

#	End of record

