#	Name: ASD08178263
#	Creating user name:	WinNT
#	Creation time:	15. 06. 2019 21:18

#	Modifying user name:	WinNT
#	Modification time:	15. 06. 2019 21:18

#	Program:	/corina/corina34_cracker 3.40 0067  02.08.2006

@<TRIPOS>MOLECULE
ASD08178263
  71   74    0    0    0
SMALL
NO_CHARGES


@<TRIPOS>ATOM
   1 N1            -0.0168     1.3902     0.0097 N.am    
   2 C2            -0.2158     0.0101     0.0228 C.ar    
   3 C3             0.8707    -0.8547    -0.0929 C.ar    
   4 N4            -1.4378    -0.4848     0.1509 N.ar    
   5 N5            -1.6633    -1.7482     0.1680 N.ar    
   6 C6            -0.6958    -2.6375     0.0595 C.ar    
   7 C7             0.6199    -2.2183    -0.0739 C.ar    
   8 C8            -1.0187    -4.1093     0.0864 C.3     
   9 C9            -1.8052    -4.4357     1.3575 C.3     
  10 C10           -2.1330    -5.9299     1.3848 C.3     
  11 C11           -2.9195    -6.2563     2.6559 C.3     
  12 C12           -3.2424    -7.7281     2.6829 C.2     
  13 N13           -2.5104    -8.6614     3.2031 N.2     
  14 N14           -2.9568    -9.8397     3.1237 N.2     
  15 C15           -4.1005   -10.0127     2.5329 C.2     
  16 S16           -4.6888    -8.4883     2.0182 S.3     
  17 N17           -4.7437   -11.2326     2.3530 N.am    
  18 C18           -4.1779   -12.3667     2.8113 C.2     
  19 C19           -4.8749   -13.6886     2.6164 C.3     
  20 O20           -3.1079   -12.3235     3.3807 O.2     
  21 C21           -4.0391   -14.7902     3.2155 C.ar    
  22 C22           -4.2186   -15.1531     4.5370 C.ar    
  23 C23           -3.4519   -16.1638     5.0866 C.ar    
  24 C24           -2.5061   -16.8116     4.3145 C.ar    
  25 C25           -2.3272   -16.4492     2.9923 C.ar    
  26 C26           -3.0967   -15.4418     2.4416 C.ar    
  27 C27           -1.2957   -17.1552     2.1505 C.3     
  28 N28           -1.9095   -18.3127     1.4949 N.am    
  29 C29           -1.1716   -19.0990     0.6865 C.2     
  30 C30           -1.8029   -20.2897     0.0121 C.3     
  31 O31            0.0006   -18.8485     0.5017 O.2     
  32 C32           -0.0042   -22.0056    -0.2799 C.ar    
  33 C33           -0.7714   -20.9957    -0.8297 C.ar    
  34 C34            0.9420   -22.6532    -1.0521 C.ar    
  35 C35            1.1209   -22.2909    -2.3741 C.ar    
  36 C36            0.3533   -21.2813    -2.9240 C.ar    
  37 C37           -0.5929   -20.6337    -2.1518 C.ar    
  38 C38           -1.0759     2.2238     0.0169 C.2     
  39 O39           -2.2004     1.7762    -0.0599 O.2     
  40 C40           -0.8627     3.7121     0.1202 C.3     
  41 H41            0.8838     1.7504    -0.0006 H       
  42 H42            1.8766    -0.4749    -0.1946 H       
  43 H43            1.4246    -2.9329    -0.1643 H       
  44 H44           -1.6176    -4.3659    -0.7874 H       
  45 H45           -0.0930    -4.6846     0.0741 H       
  46 H46           -1.2063    -4.1791     2.2313 H       
  47 H47           -2.7309    -3.8603     1.3698 H       
  48 H48           -2.7319    -6.1865     0.5110 H       
  49 H49           -1.2073    -6.5053     1.3725 H       
  50 H50           -2.3206    -5.9997     3.5298 H       
  51 H51           -3.8452    -5.6810     2.6683 H       
  52 H52           -5.5995   -11.2672     1.8976 H       
  53 H53           -5.8476   -13.6624     3.1076 H       
  54 H54           -5.0107   -13.8740     1.5509 H       
  55 H55           -4.9576   -14.6469     5.1404 H       
  56 H56           -3.5916   -16.4468     6.1195 H       
  57 H57           -1.9067   -17.6006     4.7440 H       
  58 H58           -2.9570   -15.1588     1.4088 H       
  59 H59           -0.9130   -16.4699     1.3942 H       
  60 H60           -0.4756   -17.4900     2.7857 H       
  61 H61           -2.8470   -18.5131     1.6427 H       
  62 H62           -2.1856   -20.9750     0.7684 H       
  63 H63           -2.6230   -19.9549    -0.6231 H       
  64 H64           -0.1409   -22.2856     0.7542 H       
  65 H65            1.5416   -23.4420    -0.6224 H       
  66 H66            1.8606   -22.7964    -2.9772 H       
  67 H67            0.4931   -20.9982    -3.9568 H       
  68 H68           -1.1923   -19.8447    -2.5814 H       
  69 H69           -0.7671     4.1358    -0.8795 H       
  70 H70           -1.7135     4.1666     0.6277 H       
  71 H71            0.0469     3.9103     0.6873 H       
@<TRIPOS>BOND
   1    1    2 1
   2    1   38 am
   3    1   41 1
   4    2    3 ar
   5    2    4 ar
   6    3    7 ar
   7    3   42 1
   8    4    5 ar
   9    5    6 ar
  10    6    7 ar
  11    6    8 1
  12    7   43 1
  13    8    9 1
  14    8   44 1
  15    8   45 1
  16    9   10 1
  17    9   46 1
  18    9   47 1
  19   10   11 1
  20   10   48 1
  21   10   49 1
  22   11   12 1
  23   11   50 1
  24   11   51 1
  25   12   13 2
  26   12   16 1
  27   13   14 1
  28   14   15 2
  29   15   16 1
  30   15   17 1
  31   17   18 am
  32   17   52 1
  33   18   19 1
  34   18   20 2
  35   19   21 1
  36   19   53 1
  37   19   54 1
  38   21   22 ar
  39   21   26 ar
  40   22   23 ar
  41   22   55 1
  42   23   24 ar
  43   23   56 1
  44   24   25 ar
  45   24   57 1
  46   25   26 ar
  47   25   27 1
  48   26   58 1
  49   27   28 1
  50   27   59 1
  51   27   60 1
  52   28   29 am
  53   28   61 1
  54   29   30 1
  55   29   31 2
  56   30   33 1
  57   30   62 1
  58   30   63 1
  59   32   33 ar
  60   32   34 ar
  61   32   64 1
  62   33   37 ar
  63   34   35 ar
  64   34   65 1
  65   35   36 ar
  66   35   66 1
  67   36   37 ar
  68   36   67 1
  69   37   68 1
  70   38   39 2
  71   38   40 1
  72   40   69 1
  73   40   70 1
  74   40   71 1

#	End of record

