#	Name: ASD01000036
#	Creating user name:	WinNT
#	Creation time:	15. 06. 2019 18:54

#	Modifying user name:	WinNT
#	Modification time:	15. 06. 2019 18:54

#	Program:	/corina/corina34_cracker 3.40 0067  02.08.2006

@<TRIPOS>MOLECULE
ASD01000036
  33   35    0    0    0
SMALL
NO_CHARGES


@<TRIPOS>ATOM
   1 C1            -0.0184     1.5044     0.0103 C.3     
   2 C2             4.5160    -3.4192    -0.0855 C.ar    
   3 C3             3.3520    -2.9726    -0.6937 C.ar    
   4 C4             2.2440    -2.6716     0.0749 C.ar    
   5 C5             2.2948    -2.8150     1.4489 C.ar    
   6 C6             3.4541    -3.2596     2.0577 C.ar    
   7 C7             4.5626    -3.5674     1.2933 C.ar    
   8 C8             0.9793    -2.1859    -0.5852 C.3     
   9 N9            -0.1618    -2.8194     0.0975 N.am    
  10 C10            1.0122    -0.6714    -0.6013 C.2     
  11 C11            0.0021    -0.0041     0.0020 C.2     
  12 N12           -1.0125    -0.6872     0.6104 N.am    
  13 C13           -1.0923    -2.0212     0.6573 C.2     
  14 C14            2.0710    -0.0059    -1.2285 C.2     
  15 S15           -2.4243    -2.7409     1.4565 S.2     
  16 O16            2.9502    -0.6489    -1.7669 O.2     
  17 O17            5.6071    -3.7159    -0.8393 O.3     
  18 C18            2.1335     1.4997    -1.2429 C.3     
  19 C19            1.4160     2.0376    -0.0005 C.3     
  20 H20           -0.5463     1.8650    -0.8725 H       
  21 H21           -0.5293     1.8555     0.9069 H       
  22 H22            3.3120    -2.8600    -1.7671 H       
  23 H23            1.4276    -2.5792     2.0480 H       
  24 H24            3.4915    -3.3702     3.1314 H       
  25 H25            5.4677    -3.9149     1.7692 H       
  26 H26            0.9880    -2.5330    -1.6184 H       
  27 H27           -0.2414    -3.7851     0.1430 H       
  28 H28           -1.7177    -0.1734     1.0344 H       
  29 H29            6.2029    -2.9674    -0.9806 H       
  30 H30            3.1747     1.8220    -1.2326 H       
  31 H31            1.6415     1.8770    -2.1393 H       
  32 H32            1.4005     3.1271    -0.0306 H       
  33 H33            1.9371     1.7023     0.8962 H       
@<TRIPOS>BOND
   1    1   11 1
   2    1   19 1
   3    1   20 1
   4    1   21 1
   5    2    3 ar
   6    2   17 1
   7    2    7 ar
   8    3    4 ar
   9    3   22 1
  10    4    5 ar
  11    4    8 1
  12    5    6 ar
  13    5   23 1
  14    6    7 ar
  15    6   24 1
  16    7   25 1
  17    8    9 1
  18    8   10 1
  19    8   26 1
  20    9   13 am
  21    9   27 1
  22   10   11 2
  23   10   14 1
  24   11   12 1
  25   12   13 am
  26   12   28 1
  27   13   15 2
  28   14   16 2
  29   14   18 1
  30   17   29 1
  31   18   19 1
  32   18   30 1
  33   18   31 1
  34   19   32 1
  35   19   33 1

#	End of record

