#	Name: ASD01916721
#	Creating user name:	WinNT
#	Creation time:	15. 06. 2019 20:07

#	Modifying user name:	WinNT
#	Modification time:	15. 06. 2019 20:07

#	Program:	/corina/corina34_cracker 3.40 0067  02.08.2006

@<TRIPOS>MOLECULE
ASD01916721
  31   33    0    0    0
SMALL
NO_CHARGES


@<TRIPOS>ATOM
   1 O1            -0.0161     1.3379     0.0094 O.3     
   2 C2             0.0021    -0.0041     0.0020 C.2     
   3 N3             1.2266    -0.4378    -0.0120 N.2     
   4 C4             2.0702     0.6297    -0.0143 C.ar    
   5 C5             1.2627     1.7764    -0.0005 C.ar    
   6 C6             1.8490     3.0348     0.0000 C.ar    
   7 C7             3.2252     3.1524    -0.0132 C.ar    
   8 C8             4.0276     2.0191    -0.0274 C.ar    
   9 C9             3.4600     0.7623    -0.0273 C.ar    
  10 C10           -1.2227    -0.8821     0.0090 C.3     
  11 C11           -1.6234    -1.1870     1.4538 C.3     
  12 C12           -2.8197    -2.0447     1.4606 C.1     
  13 C13           -3.7738    -2.7287     1.4660 C.1     
  14 C14           -4.9376    -3.5631     1.4727 C.ar    
  15 C15           -5.4887    -3.9730     2.6873 C.ar    
  16 C16           -6.6131    -4.7790     2.6769 C.ar    
  17 C17           -7.1516    -5.1500     1.4525 C.ar    
  18 C18           -6.5546    -4.7078     0.2864 C.ar    
  19 N19           -5.4873    -3.9364     0.3228 N.ar    
  20 F20            1.0751     4.1421     0.0129 F       
  21 F21            5.3723     2.1486    -0.0411 F       
  22 H22            3.6800     4.1319    -0.0128 H       
  23 H23            4.0882    -0.1162    -0.0377 H       
  24 H24           -2.0414    -0.3678    -0.4943 H       
  25 H25           -1.0044    -1.8144    -0.5120 H       
  26 H26           -0.8047    -1.7014     1.9571 H       
  27 H27           -1.8417    -0.2548     1.9747 H       
  28 H28           -5.0436    -3.6658     3.6221 H       
  29 H29           -7.0618    -5.1123     3.6010 H       
  30 H30           -8.0288    -5.7787     1.4110 H       
  31 H31           -6.9714    -4.9954    -0.6675 H       
@<TRIPOS>BOND
   1    1    2 1
   2    1    5 1
   3    2    3 2
   4    2   10 1
   5    3    4 1
   6    4    5 ar
   7    4    9 ar
   8    5    6 ar
   9    6    7 ar
  10    6   20 1
  11    7    8 ar
  12    7   22 1
  13    8    9 ar
  14    8   21 1
  15    9   23 1
  16   10   11 1
  17   10   24 1
  18   10   25 1
  19   11   12 1
  20   11   26 1
  21   11   27 1
  22   12   13 3
  23   13   14 1
  24   14   15 ar
  25   14   19 ar
  26   15   16 ar
  27   15   28 1
  28   16   17 ar
  29   16   29 1
  30   17   18 ar
  31   17   30 1
  32   18   19 ar
  33   18   31 1

#	End of record

