#	Name: ASD01910663
#	Creating user name:	WinNT
#	Creation time:	15. 06. 2019 19:56

#	Modifying user name:	WinNT
#	Modification time:	15. 06. 2019 19:56

#	Program:	/corina/corina34_cracker 3.40 0067  02.08.2006

@<TRIPOS>MOLECULE
ASD01910663
  32   34    0    0    0
SMALL
NO_CHARGES


@<TRIPOS>ATOM
   1 C1            -0.0167     1.3809     0.0096 C.ar    
   2 C2             0.0021    -0.0041     0.0020 C.ar    
   3 C3             1.2073    -0.6866    -0.0132 C.ar    
   4 C4             2.3974     0.0095    -0.0209 C.ar    
   5 C5             2.3858     1.4072    -0.0133 C.ar    
   6 C6             1.1660     2.0896     0.0021 C.ar    
   7 C7             3.6180     2.1367    -0.0207 C.1     
   8 C8             4.6282     2.7348    -0.0268 C.1     
   9 C9             5.8604     3.4644    -0.0342 C.ar    
  10 C10            5.8441     4.8643    -0.0265 C.ar    
  11 C11            7.0193     5.5564    -0.0334 C.ar    
  12 C12            8.2375     4.8669    -0.0475 C.ar    
  13 C13            8.2563     3.4720    -0.0561 C.ar    
  14 C14            7.0795     2.7769    -0.0433 C.ar    
  15 C15            7.0280     7.0623    -0.0266 C.3     
  16 C16            8.2272     7.5713     0.7699 C.3     
  17 N17            9.4637     6.9415     0.3151 N.am    
  18 C18            9.4932     5.6448    -0.0519 C.2     
  19 O19           10.5402     5.1220    -0.3818 O.2     
  20 Cl20          -1.4917    -0.8885     0.0122 Cl      
  21 H21           -0.9599     1.9069     0.0170 H       
  22 H22            1.2147    -1.7666    -0.0187 H       
  23 H23            3.3364    -0.5240    -0.0324 H       
  24 H24            1.1499     3.1695     0.0077 H       
  25 H25            4.9034     5.3947    -0.0155 H       
  26 H26            9.1978     2.9429    -0.0678 H       
  27 H27            7.0903     1.6970    -0.0495 H       
  28 H28            7.0920     7.4286    -1.0512 H       
  29 H29            6.1084     7.4276     0.4304 H       
  30 H30            8.3082     8.6510     0.6441 H       
  31 H31            8.0777     7.3452     1.8257 H       
  32 H32           10.2787     7.4660     0.2760 H       
@<TRIPOS>BOND
   1    1    2 ar
   2    1    6 ar
   3    1   21 1
   4    2    3 ar
   5    2   20 1
   6    3    4 ar
   7    3   22 1
   8    4    5 ar
   9    4   23 1
  10    5    6 ar
  11    5    7 1
  12    6   24 1
  13    7    8 3
  14    8    9 1
  15    9   10 ar
  16    9   14 ar
  17   10   11 ar
  18   10   25 1
  19   11   12 ar
  20   11   15 1
  21   12   13 ar
  22   12   18 1
  23   13   14 ar
  24   13   26 1
  25   14   27 1
  26   15   16 1
  27   15   28 1
  28   15   29 1
  29   16   17 1
  30   16   30 1
  31   16   31 1
  32   17   18 am
  33   17   32 1
  34   18   19 2

#	End of record

