#	Name: ASD01231297
#	Creating user name:	WinNT
#	Creation time:	15. 06. 2019 19:15

#	Modifying user name:	WinNT
#	Modification time:	15. 06. 2019 19:15

#	Program:	/corina/corina34_cracker 3.40 0067  02.08.2006

@<TRIPOS>MOLECULE
ASD01231297
  46   48    0    0    0
SMALL
NO_CHARGES


@<TRIPOS>ATOM
   1 C1            -3.2705     1.1168     1.1849 C.3     
   2 C2            -2.8817    -0.3603     1.2727 C.3     
   3 C3            -4.1444    -1.2233     1.2328 C.3     
   4 S4            -1.8122    -0.7884    -0.1286 S.o2    
   5 O5            -2.5470    -0.7571    -1.3444 O.2     
   6 O6            -0.5557    -0.1345    -0.0148 O.2     
   7 N7            -1.4602    -2.3910     0.0947 N.am    
   8 C8            -1.6247    -3.2923     2.3961 C.3     
   9 C9            -0.6885    -2.8153     1.2655 C.3     
  10 C10            0.1282    -4.0871     0.9529 C.3     
  11 C11            0.1198    -4.8889     2.2368 C.ar    
  12 C12            0.9292    -5.9347     2.6453 C.ar    
  13 C13            0.7327    -6.5250     3.8840 C.ar    
  14 C14           -0.2791    -6.0648     4.7148 C.ar    
  15 C15           -1.0847    -5.0222     4.3045 C.ar    
  16 C16           -0.8877    -4.4322     3.0664 C.ar    
  17 O17            1.5283    -7.5517     4.2834 O.3     
  18 C18            4.5165    -5.6838     5.1879 C.ar    
  19 C19            3.2462    -5.9451     4.7166 C.ar    
  20 C20            2.7721    -7.2544     4.7381 C.ar    
  21 C21            3.6069    -8.2510     5.2385 C.ar    
  22 C22            4.8639    -7.9081     5.6916 C.ar    
  23 N23            5.2777    -6.6554     5.6545 N.ar    
  24 C24            5.0433    -4.2721     5.1642 C.3     
  25 F25            4.7164    -3.6322     6.3645 F       
  26 F26            6.4337    -4.2956     5.0118 F       
  27 F27            4.4686    -3.5779     4.0941 F       
  28 H28           -3.9132     1.3740     2.0269 H       
  29 H29           -2.3709     1.7317     1.2134 H       
  30 H30           -3.8045     1.2972     0.2519 H       
  31 H31           -2.3477    -0.5407     2.2057 H       
  32 H32           -4.7244    -0.9777     0.3432 H       
  33 H33           -3.8641    -2.2763     1.2045 H       
  34 H34           -4.7444    -1.0308     2.1222 H       
  35 H35           -1.7649    -3.0489    -0.5497 H       
  36 H36           -1.8003    -2.4853     3.1074 H       
  37 H37           -2.5693    -3.6445     1.9817 H       
  38 H38           -0.0381    -2.0130     1.6137 H       
  39 H39           -0.3453    -4.6529     0.1505 H       
  40 H40            1.1495    -3.8228     0.6787 H       
  41 H41            1.7161    -6.2915     1.9973 H       
  42 H42           -0.4360    -6.5220     5.6806 H       
  43 H43           -1.8720    -4.6644     4.9514 H       
  44 H44            2.6281    -5.1452     4.3364 H       
  45 H45            3.2744    -9.2780     5.2717 H       
  46 H46            5.5177    -8.6743     6.0812 H       
@<TRIPOS>BOND
   1    1    2 1
   2    1   28 1
   3    1   29 1
   4    1   30 1
   5    2    3 1
   6    2    4 1
   7    2   31 1
   8    3   32 1
   9    3   33 1
  10    3   34 1
  11    4    5 2
  12    4    6 2
  13    4    7 am
  14    7    9 1
  15    7   35 1
  16    8    9 1
  17    8   16 1
  18    8   36 1
  19    8   37 1
  20    9   10 1
  21    9   38 1
  22   10   11 1
  23   10   39 1
  24   10   40 1
  25   11   12 ar
  26   11   16 ar
  27   12   13 ar
  28   12   41 1
  29   13   14 ar
  30   13   17 1
  31   14   15 ar
  32   14   42 1
  33   15   16 ar
  34   15   43 1
  35   17   20 1
  36   18   19 ar
  37   18   23 ar
  38   18   24 1
  39   19   20 ar
  40   19   44 1
  41   20   21 ar
  42   21   22 ar
  43   21   45 1
  44   22   23 ar
  45   22   46 1
  46   24   25 1
  47   24   26 1
  48   24   27 1

#	End of record

