#	Name: ASD03430981
#	Creating user name:	WinNT
#	Creation time:	15. 06. 2019 20:41

#	Modifying user name:	WinNT
#	Modification time:	15. 06. 2019 20:41

#	Program:	/corina/corina34_cracker 3.40 0067  02.08.2006

@<TRIPOS>MOLECULE
ASD03430981
  49   54    0    0    0
SMALL
NO_CHARGES


@<TRIPOS>ATOM
   1 O1            -0.0175     1.4360     0.0099 O.3     
   2 C2             0.0021    -0.0041     0.0020 C.3     
   3 C3             1.3441    -0.3164    -0.6738 C.3     
   4 C4             2.1590     0.9220    -0.4113 C.ar    
   5 C5             1.2619     1.9060     0.0002 C.ar    
   6 C6             1.7465     3.1659     0.3285 C.ar    
   7 C7             3.1098     3.4393     0.2349 C.ar    
   8 C8             3.9930     2.4443    -0.1886 C.ar    
   9 C9             3.5081     1.1921    -0.5080 C.ar    
  10 N10            2.1538    -2.4045    -1.1307 N.am    
  11 C11            1.9833    -1.5495    -0.1026 C.2     
  12 C12            1.1831    -0.5940    -2.1389 C.ar    
  13 C13            0.6715     0.1283    -3.1938 C.ar    
  14 C14            0.6628    -0.4148    -4.4662 C.ar    
  15 C15            1.1682    -1.6849    -4.6760 C.ar    
  16 C16            1.6806    -2.4130    -3.6226 C.ar    
  17 C17            1.6947    -1.8738    -2.3385 C.ar    
  18 C18            3.6044     4.7401     0.5723 C.1     
  19 N19            3.9968     5.7720     0.8400 N.1     
  20 O20            2.2866    -1.7389     1.0564 O.2     
  21 C21            2.7511    -3.7355    -0.9968 C.3     
  22 O22           -1.2853    -7.5116     0.1168 O.3     
  23 C23           -2.1655    -7.8678    -0.9549 C.3     
  24 C24           -1.3166    -8.1360    -2.2049 C.3     
  25 O25           -0.5895    -6.9428    -2.5174 O.3     
  26 C26            0.0345    -6.3180    -1.4816 C.ar    
  27 C27           -0.3148    -6.6003    -0.1660 C.ar    
  28 C28            1.0296    -5.3895    -1.7468 C.ar    
  29 C29            1.6701    -4.7442    -0.7055 C.ar    
  30 C30            1.3210    -5.0230     0.6025 C.ar    
  31 C31            0.3310    -5.9489     0.8738 C.ar    
  32 H32           -0.0198    -0.3968     1.0186 H       
  33 H33           -0.8275    -0.3990    -0.5844 H       
  34 H34            1.0644     3.9361     0.6570 H       
  35 H35            5.0498     2.6533    -0.2657 H       
  36 H36            4.1886     0.4199    -0.8351 H       
  37 H37            0.2769     1.1198    -3.0277 H       
  38 H38            0.2619     0.1517    -5.2937 H       
  39 H39            1.1612    -2.1089    -5.6693 H       
  40 H40            2.0727    -3.4046    -3.7941 H       
  41 H41            3.2561    -4.0021    -1.9252 H       
  42 H42            3.4723    -3.7296    -0.1796 H       
  43 H43           -2.7232    -8.7660    -0.6895 H       
  44 H44           -2.8579    -7.0487    -1.1495 H       
  45 H45           -0.6193    -8.9504    -2.0079 H       
  46 H46           -1.9652    -8.4006    -3.0400 H       
  47 H47            1.3041    -5.1697    -2.7680 H       
  48 H48            1.8227    -4.5168     1.4139 H       
  49 H49            0.0602    -6.1650     1.8967 H       
@<TRIPOS>BOND
   1    1    2 1
   2    1    5 1
   3    2    3 1
   4    2   32 1
   5    2   33 1
   6    3    4 1
   7    3   11 1
   8    3   12 1
   9    4    5 ar
  10    4    9 ar
  11    5    6 ar
  12    6    7 ar
  13    6   34 1
  14    7    8 ar
  15    7   18 1
  16    8    9 ar
  17    8   35 1
  18    9   36 1
  19   10   11 am
  20   10   17 1
  21   10   21 1
  22   11   20 2
  23   12   13 ar
  24   12   17 ar
  25   13   14 ar
  26   13   37 1
  27   14   15 ar
  28   14   38 1
  29   15   16 ar
  30   15   39 1
  31   16   17 ar
  32   16   40 1
  33   18   19 3
  34   21   29 1
  35   21   41 1
  36   21   42 1
  37   22   23 1
  38   22   27 1
  39   23   24 1
  40   23   43 1
  41   23   44 1
  42   24   25 1
  43   24   45 1
  44   24   46 1
  45   25   26 1
  46   26   27 ar
  47   26   28 ar
  48   27   31 ar
  49   28   29 ar
  50   28   47 1
  51   29   30 ar
  52   30   31 ar
  53   30   48 1
  54   31   49 1

#	End of record

