#	Name: ASD01884010
#	Creating user name:	WinNT
#	Creation time:	15. 06. 2019 19:47

#	Modifying user name:	WinNT
#	Modification time:	15. 06. 2019 19:47

#	Program:	/corina/corina34_cracker 3.40 0067  02.08.2006

@<TRIPOS>MOLECULE
ASD01884010
  36   39    0    0    0
SMALL
NO_CHARGES


@<TRIPOS>ATOM
   1 C1             0.1360     1.6471    -0.0759 C.3     
   2 C2             0.3238     0.1287    -0.2655 C.3     
   3 C3             1.7811    -0.3187    -0.1686 C.2     
   4 C4             2.6076     0.4891     0.7625 C.ar    
   5 C5             3.6349    -0.0789     1.5045 C.ar    
   6 C6             4.3690     0.7140     2.3656 C.ar    
   7 C7             4.0802     2.0628     2.4863 C.ar    
   8 C8             3.0621     2.6363     1.7480 C.ar    
   9 C9             2.3184     1.8587     0.8761 C.ar    
  10 O10            1.3333     2.4069     0.1209 O.3     
  11 C11           -0.2888     0.6788     1.0267 C.3     
  12 C12           -0.9421     2.3252    -0.8814 C.2     
  13 O13           -1.3107     1.8407    -1.9305 O.2     
  14 N14           -1.4968     3.4700    -0.4362 N.am    
  15 N15            2.2547    -1.3177    -0.8410 N.2     
  16 O16            1.4111    -2.0479    -1.7129 O.3     
  17 C17           -2.4276     4.1519    -1.2295 C.ar    
  18 C18           -3.3185     3.4409    -2.0224 C.ar    
  19 C19           -4.2357     4.1153    -2.8043 C.ar    
  20 C20           -4.2673     5.4997    -2.7977 C.ar    
  21 C21           -3.3797     6.2106    -2.0077 C.ar    
  22 C22           -2.4647     5.5399    -1.2200 C.ar    
  23 F23           -5.1650     6.1576    -3.5635 F       
  24 H24           -0.3038    -0.4015    -0.9818 H       
  25 H25            3.8578    -1.1314     1.4095 H       
  26 H26            5.1703     0.2806     2.9458 H       
  27 H27            4.6572     2.6738     3.1647 H       
  28 H28            2.8468     3.6896     1.8509 H       
  29 H29            0.3235     0.6435     1.9278 H       
  30 H30           -1.3576     0.5291     1.1795 H       
  31 H31           -1.2512     3.8215     0.4339 H       
  32 H32            1.8540    -2.7752    -2.1711 H       
  33 H33           -3.2939     2.3611    -2.0281 H       
  34 H34           -4.9286     3.5626    -3.4214 H       
  35 H35           -3.4057     7.2903    -2.0042 H       
  36 H36           -1.7756     6.0946    -0.6006 H       
@<TRIPOS>BOND
   1    1    2 1
   2    1   10 1
   3    1   11 1
   4    1   12 1
   5    2    3 1
   6    2   11 1
   7    2   24 1
   8    3    4 1
   9    3   15 2
  10    4    5 ar
  11    4    9 ar
  12    5    6 ar
  13    5   25 1
  14    6    7 ar
  15    6   26 1
  16    7    8 ar
  17    7   27 1
  18    8    9 ar
  19    8   28 1
  20    9   10 1
  21   11   29 1
  22   11   30 1
  23   12   13 2
  24   12   14 am
  25   14   17 1
  26   14   31 1
  27   15   16 1
  28   16   32 1
  29   17   18 ar
  30   17   22 ar
  31   18   19 ar
  32   18   33 1
  33   19   20 ar
  34   19   34 1
  35   20   21 ar
  36   20   23 1
  37   21   22 ar
  38   21   35 1
  39   22   36 1

#	End of record

