#	Name: ASD01812865
#	Creating user name:	WinNT
#	Creation time:	15. 06. 2019 19:29

#	Modifying user name:	WinNT
#	Modification time:	15. 06. 2019 19:29

#	Program:	/corina/corina34_cracker 3.40 0067  02.08.2006

@<TRIPOS>MOLECULE
ASD01812865
  57   61    0    0    0
SMALL
NO_CHARGES


@<TRIPOS>ATOM
   1 C1             0.0048     1.3823    -0.2638 C.ar    
   2 C2             0.0364     0.0086    -0.3971 C.ar    
   3 C3             1.2473    -0.6674    -0.3896 C.ar    
   4 C4             2.4241     0.0277    -0.2493 C.ar    
   5 C5             2.4112     1.4192    -0.1131 C.ar    
   6 C6             1.1848     2.0980    -0.1212 C.ar    
   7 C7             3.8725    -0.3909    -0.2019 C.3     
   8 N8             4.6497     0.8423    -0.0331 N.am    
   9 C9             3.8018     1.8840     0.0176 C.2     
  10 C10            6.1092     0.9245     0.0638 C.3     
  11 C11            6.6954     1.0919    -1.3144 C.ar    
  12 C12            6.9820     2.3609    -1.7826 C.ar    
  13 C13            7.5210     2.5097    -3.0493 C.ar    
  14 C14            7.7551     1.3611    -3.8089 C.ar    
  15 C15            7.4391     0.1178    -3.2656 C.ar    
  16 N16            6.9323     0.0251    -2.0532 N.ar    
  17 O17            1.1519     3.4477     0.0091 O.3     
  18 O18            4.1360     3.0454     0.1520 O.2     
  19 C19           -0.0542     4.0683    -0.0811 C.ar    
  20 C20           -0.8563     4.1979     1.0458 C.ar    
  21 C21           -2.0828     4.8305     0.9503 C.ar    
  22 C22           -2.5094     5.3329    -0.2651 C.ar    
  23 C23           -1.7124     5.2043    -1.3876 C.ar    
  24 C24           -0.4838     4.5784    -1.2971 C.ar    
  25 C25           -3.8459     6.0217    -0.3667 C.3     
  26 F26           -0.4393     3.7065     2.2332 F       
  27 C27            8.6062     0.4236    -6.0127 C.2     
  28 C28            8.3311     1.4635    -5.1736 C.2     
  29 C29            8.6928     2.6520    -5.8372 C.2     
  30 N30            9.1607     2.3331    -7.0149 N.2     
  31 N31            9.1166     0.9401    -7.1488 N.pl3   
  32 C32            9.5506     0.1757    -8.3208 C.3     
  33 C33           -3.6411     7.5378    -0.3484 C.3     
  34 O34           -4.4858     5.6422    -1.5868 O.3     
  35 F35           -2.8394     7.9132    -1.4317 F       
  36 F36           -4.8818     8.1772    -0.4427 F       
  37 F37           -3.0146     7.9093     0.8461 F       
  38 H38           -0.9417     1.9022    -0.2750 H       
  39 H39           -0.8861    -0.5421    -0.5073 H       
  40 H40            1.2653    -1.7422    -0.4939 H       
  41 H41            4.0420    -1.0593     0.6422 H       
  42 H42            4.1505    -0.8845    -1.1331 H       
  43 H43            6.3847     1.7788     0.6820 H       
  44 H44            6.4955     0.0103     0.5144 H       
  45 H45            6.7872     3.2267    -1.1671 H       
  46 H46            7.7542     3.4890    -3.4403 H       
  47 H47            7.6150    -0.7784    -3.8420 H       
  48 H48           -2.7076     4.9317     1.8254 H       
  49 H49           -2.0488     5.5972    -2.3357 H       
  50 H50            0.1396     4.4826    -2.1738 H       
  51 H51           -4.4705     5.7292     0.4773 H       
  52 H52            8.4480    -0.6240    -5.8032 H       
  53 H53            8.5993     3.6527    -5.4418 H       
  54 H54            8.7117     0.0537    -9.0060 H       
  55 H55           10.3565     0.7093    -8.8245 H       
  56 H56            9.9064    -0.8046    -8.0038 H       
  57 H57           -3.9852     5.8721    -2.3815 H       
@<TRIPOS>BOND
   1    1    2 ar
   2    1    6 ar
   3    1   38 1
   4    2    3 ar
   5    2   39 1
   6    3    4 ar
   7    3   40 1
   8    4    7 1
   9    4    5 ar
  10    5    6 ar
  11    5    9 1
  12    6   17 1
  13    7    8 1
  14    7   41 1
  15    7   42 1
  16    8    9 am
  17    8   10 1
  18    9   18 2
  19   10   11 1
  20   10   43 1
  21   10   44 1
  22   11   12 ar
  23   11   16 ar
  24   12   13 ar
  25   12   45 1
  26   13   14 ar
  27   13   46 1
  28   14   15 ar
  29   14   28 1
  30   15   16 ar
  31   15   47 1
  32   17   19 1
  33   19   20 ar
  34   19   24 ar
  35   20   21 ar
  36   20   26 1
  37   21   22 ar
  38   21   48 1
  39   22   23 ar
  40   22   25 1
  41   23   24 ar
  42   23   49 1
  43   24   50 1
  44   25   33 1
  45   25   34 1
  46   25   51 1
  47   27   28 2
  48   27   31 1
  49   27   52 1
  50   28   29 1
  51   29   30 2
  52   29   53 1
  53   30   31 1
  54   31   32 1
  55   32   54 1
  56   32   55 1
  57   32   56 1
  58   33   35 1
  59   33   36 1
  60   33   37 1
  61   34   57 1

#	End of record

