#	Name: ASD05380123
#	Creating user name:	WinNT
#	Creation time:	15. 06. 2019 20:59

#	Modifying user name:	WinNT
#	Modification time:	15. 06. 2019 20:59

#	Program:	/corina/corina34_cracker 3.40 0067  02.08.2006

@<TRIPOS>MOLECULE
ASD05380123
  52   56    0    0    0
SMALL
NO_CHARGES


@<TRIPOS>ATOM
   1 C1            -0.2684     1.7421    -0.3092 C.ar    
   2 C2            -0.0030     0.3787    -0.5683 C.ar    
   3 C3             0.6339     2.7196    -0.7228 C.ar    
   4 C4             1.7835     2.3461    -1.3846 C.ar    
   5 C5             2.0474     1.0073    -1.6409 C.ar    
   6 C6             1.1686     0.0257    -1.2405 C.ar    
   7 N7            -0.8956    -0.5557    -0.1558 N.2     
   8 C8            -1.9849    -0.2271     0.4697 C.2     
   9 N9            -2.3211     1.0588     0.7607 N.am    
  10 C10           -1.5075     2.0805     0.4058 C.2     
  11 C11           -3.5170     1.3271     1.4391 C.ar    
  12 C12           -4.6866     1.5528     0.7230 C.ar    
  13 C13           -5.8970     1.8609     2.7665 C.ar    
  14 C14           -2.9249    -1.3257     0.8945 C.3     
  15 N15           -2.9264    -2.3854    -0.1171 N.pl3   
  16 C16           -4.0251    -3.2164    -0.2468 C.ar    
  17 N17           -5.0860    -3.0659     0.5383 N.ar    
  18 O18           -1.7956     3.2356     0.6597 O.2     
  19 C19           -4.0449    -4.2340    -1.2161 C.ar    
  20 C20           -5.1865    -5.0479    -1.3040 C.ar    
  21 N21           -6.2021    -4.8307    -0.4744 N.ar    
  22 C22           -6.1441    -3.8578     0.4206 C.ar    
  23 N23           -3.1742    -4.6634    -2.1625 N.2     
  24 C24           -3.6964    -5.6642    -2.8092 C.2     
  25 N25           -4.9385    -5.9400    -2.3163 N.pl3   
  26 C26           -5.8692     1.8184     1.3873 C.ar    
  27 C27           -4.7286     1.6295     3.4955 C.ar    
  28 C28           -3.5348     1.3618     2.8243 C.ar    
  29 C29           -2.4640    -1.9012     2.2352 C.3     
  30 C30           -4.7541     1.6734     4.9266 C.1     
  31 C31            0.3546     4.1750    -0.4490 C.3     
  32 N32           -4.7743     1.7082     6.0619 N.1     
  33 N33           -7.2249    -3.6597     1.2640 N.pl3   
  34 H34            2.4850     3.1013    -1.7070 H       
  35 H35            2.9533     0.7324    -2.1608 H       
  36 H36            1.3848    -1.0125    -1.4452 H       
  37 H37           -4.6712     1.5209    -0.3564 H       
  38 H38           -6.8229     2.0692     3.2819 H       
  39 H39           -3.9319    -0.9220     0.9993 H       
  40 H40           -2.1572    -2.5045    -0.6959 H       
  41 H41           -3.2176    -6.1977    -3.6170 H       
  42 H42           -5.5362    -6.6389    -2.6248 H       
  43 H43           -6.7746     1.9937     0.8251 H       
  44 H44           -2.6279     1.1819     3.3825 H       
  45 H45           -2.4937    -1.1204     2.9952 H       
  46 H46           -3.1251    -2.7173     2.5268 H       
  47 H47           -1.4450    -2.2757     2.1388 H       
  48 H48            0.6748     4.4222     0.5632 H       
  49 H49            0.9011     4.7905    -1.1635 H       
  50 H50           -0.7141     4.3648    -0.5485 H       
  51 H51           -7.1997    -2.9515     1.9264 H       
  52 H52           -8.0069    -4.2291     1.1922 H       
@<TRIPOS>BOND
   1    1    2 ar
   2    1    3 ar
   3    1   10 1
   4    2    7 1
   5    2    6 ar
   6    3    4 ar
   7    3   31 1
   8    4    5 ar
   9    4   34 1
  10    5    6 ar
  11    5   35 1
  12    6   36 1
  13    7    8 2
  14    8    9 1
  15    8   14 1
  16    9   10 am
  17    9   11 1
  18   10   18 2
  19   11   12 ar
  20   11   28 ar
  21   12   26 ar
  22   12   37 1
  23   13   26 ar
  24   13   27 ar
  25   13   38 1
  26   14   15 1
  27   14   29 1
  28   14   39 1
  29   15   16 1
  30   15   40 1
  31   16   17 ar
  32   16   19 ar
  33   17   22 ar
  34   19   20 ar
  35   19   23 1
  36   20   21 ar
  37   20   25 1
  38   21   22 ar
  39   22   33 1
  40   23   24 2
  41   24   25 1
  42   24   41 1
  43   25   42 1
  44   26   43 1
  45   27   30 1
  46   27   28 ar
  47   28   44 1
  48   29   45 1
  49   29   46 1
  50   29   47 1
  51   30   32 3
  52   31   48 1
  53   31   49 1
  54   31   50 1
  55   33   51 1
  56   33   52 1

#	End of record

