#	Name: ASD03082305
#	Creating user name:	WinNT
#	Creation time:	15. 06. 2019 20:27

#	Modifying user name:	WinNT
#	Modification time:	15. 06. 2019 20:27

#	Program:	/corina/corina34_cracker 3.40 0067  02.08.2006

@<TRIPOS>MOLECULE
ASD03082305
  45   47    0    0    0
SMALL
NO_CHARGES


@<TRIPOS>ATOM
   1 N1             0.0330     1.4653    -0.1411 N.pl3   
   2 N2            -0.0025     0.0620    -0.1797 N.2     
   3 C3             1.2197    -0.3584     0.0520 C.2     
   4 N4             2.0158     0.6969     0.2327 N.2     
   5 C5             1.3146     1.8072     0.1194 C.2     
   6 N6             1.6214    -1.6946     0.1016 N.pl3   
   7 C7             2.9763    -2.0129     0.2399 C.ar    
   8 C8             3.3517    -3.2241     0.8065 C.ar    
   9 C9             4.6920    -3.5366     0.9418 C.ar    
  10 C10            5.6599    -2.6406     0.5122 C.ar    
  11 C11            5.2861    -1.4337    -0.0524 C.ar    
  12 C12            3.9479    -1.1206    -0.1943 C.ar    
  13 C13            1.8380     3.1847     0.2532 C.ar    
  14 C14           -1.0942     2.3779    -0.3484 C.3     
  15 C15            0.9720     4.2526     0.5118 C.ar    
  16 C16            1.5118     5.5218     0.6280 C.ar    
  17 C17            2.8768     5.6923     0.4862 C.ar    
  18 N18            3.6694     4.6663     0.2420 N.ar    
  19 C19            3.2040     3.4395     0.1292 C.ar    
  20 C20           -1.7818     2.6340     0.9680 C.2     
  21 N21           -2.8535     3.4495     1.0210 N.am    
  22 C22           -3.5219     3.6985     2.3006 C.3     
  23 O23           -1.3708     2.1061     1.9796 O.2     
  24 C24           -3.3499     4.0871    -0.2010 C.3     
  25 F25            6.9690    -2.9464     0.6455 F       
  26 F26            5.0587    -4.7143     1.4927 F       
  27 C27            3.4685     7.0726     0.6120 C.3     
  28 H28            0.9608    -2.4022     0.0401 H       
  29 H29            2.5977    -3.9210     1.1415 H       
  30 H30            6.0413    -0.7376    -0.3862 H       
  31 H31            3.6574    -0.1803    -0.6392 H       
  32 H32           -0.7285     3.3201    -0.7566 H       
  33 H33           -1.8011     1.9294    -1.0464 H       
  34 H34           -0.0906     4.0908     0.6177 H       
  35 H35            0.8736     6.3701     0.8270 H       
  36 H36            3.8844     2.6251    -0.0710 H       
  37 H37           -3.0148     3.1430     3.0895 H       
  38 H38           -3.4878     4.7641     2.5270 H       
  39 H39           -4.5604     3.3735     2.2373 H       
  40 H40           -4.0923     3.4423    -0.6714 H       
  41 H41           -3.8064     5.0449     0.0486 H       
  42 H42           -2.5204     4.2484    -0.8895 H       
  43 H43            3.7342     7.2606     1.6523 H       
  44 H44            4.3612     7.1433    -0.0095 H       
  45 H45            2.7381     7.8123     0.2842 H       
@<TRIPOS>BOND
   1    1    2 1
   2    1    5 1
   3    1   14 1
   4    2    3 2
   5    3    4 1
   6    3    6 1
   7    4    5 2
   8    5   13 1
   9    6    7 1
  10    6   28 1
  11    7    8 ar
  12    7   12 ar
  13    8    9 ar
  14    8   29 1
  15    9   10 ar
  16    9   26 1
  17   10   11 ar
  18   10   25 1
  19   11   12 ar
  20   11   30 1
  21   12   31 1
  22   13   15 ar
  23   13   19 ar
  24   14   20 1
  25   14   32 1
  26   14   33 1
  27   15   16 ar
  28   15   34 1
  29   16   17 ar
  30   16   35 1
  31   17   18 ar
  32   17   27 1
  33   18   19 ar
  34   19   36 1
  35   20   21 am
  36   20   23 2
  37   21   22 1
  38   21   24 1
  39   22   37 1
  40   22   38 1
  41   22   39 1
  42   24   40 1
  43   24   41 1
  44   24   42 1
  45   27   43 1
  46   27   44 1
  47   27   45 1

#	End of record

