#	Name: ASD02198334
#	Creating user name:	WinNT
#	Creation time:	15. 06. 2019 20:19

#	Modifying user name:	WinNT
#	Modification time:	15. 06. 2019 20:19

#	Program:	/corina/corina34_cracker 3.40 0067  02.08.2006

@<TRIPOS>MOLECULE
ASD02198334
  49   52    0    0    0
SMALL
NO_CHARGES


@<TRIPOS>ATOM
   1 C1             0.6538     2.4063     2.8310 C.2     
   2 C2             0.4544     1.1389     3.3453 C.2     
   3 S3             1.9974     2.3178     1.6949 S.3     
   4 C4             2.1669     0.6452     2.0000 C.2     
   5 N5             1.2859     0.2416     2.8696 N.2     
   6 N6            -0.5299     0.8437     4.2754 N.pl3   
   7 C7            -0.0875     3.5596     3.1526 C.2     
   8 C8             0.3476     4.8812     2.6531 C.ar    
   9 O9            -1.0884     3.4681     3.8434 O.2     
  10 N10            3.1080    -0.1663     1.4065 N.pl3   
  11 C11           -0.5519     5.9491     2.6232 C.ar    
  12 C12            1.6608     5.0664     2.2151 C.ar    
  13 C13            2.0625     6.2992     1.7502 C.ar    
  14 C14            1.1630     7.3580     1.7167 C.ar    
  15 C15           -0.1428     7.1791     2.1570 C.ar    
  16 C16            3.0729    -1.5496     1.6180 C.ar    
  17 C17            1.8782    -2.1700     1.9595 C.ar    
  18 C18            1.8442    -3.5346     2.1676 C.ar    
  19 C19            3.0031    -4.2859     2.0355 C.ar    
  20 C20            4.1971    -3.6667     1.6948 C.ar    
  21 C21            4.2315    -2.3030     1.4808 C.ar    
  22 O22            1.5627     8.5716     1.2583 O.3     
  23 C23            0.5872     9.6158     1.2512 C.3     
  24 F24           -0.4891     9.2430     0.4389 F       
  25 F25            0.1321     9.8378     2.5554 F       
  26 O26            2.9689    -5.6296     2.2405 O.3     
  27 C27            2.9944    -6.0802     3.5221 C.ar    
  28 C28            2.9504    -5.1793     4.5766 C.ar    
  29 C29            3.0586    -7.4424     3.7788 C.ar    
  30 C30            3.0839    -7.8978     5.0826 C.ar    
  31 C31            3.0453    -6.9977     6.1315 C.ar    
  32 C32            2.9760    -5.6401     5.8786 C.ar    
  33 H33           -1.1197     1.5437     4.5961 H       
  34 H34           -0.6289    -0.0630     4.6056 H       
  35 H35            3.7953     0.2207     0.8419 H       
  36 H36           -1.5670     5.8108     2.9650 H       
  37 H37            2.3605     4.2441     2.2412 H       
  38 H38            3.0779     6.4433     1.4117 H       
  39 H39           -0.8391     8.0042     2.1295 H       
  40 H40            0.9761    -1.5853     2.0627 H       
  41 H41            0.9153    -4.0172     2.4335 H       
  42 H42            5.0989    -4.2521     1.5925 H       
  43 H43            5.1608    -1.8212     1.2153 H       
  44 H44            1.0362    10.5299     0.8626 H       
  45 H45            2.8966    -4.1188     4.3796 H       
  46 H46            3.0884    -8.1458     2.9598 H       
  47 H47            3.1336    -8.9579     5.2829 H       
  48 H48            3.0652    -7.3559     7.1502 H       
  49 H49            2.9464    -4.9391     6.6996 H       
@<TRIPOS>BOND
   1    1    2 2
   2    1    3 1
   3    1    7 1
   4    2    6 1
   5    2    5 1
   6    3    4 1
   7    4    5 2
   8    4   10 1
   9    6   33 1
  10    6   34 1
  11    7    8 1
  12    7    9 2
  13    8   11 ar
  14    8   12 ar
  15   10   16 1
  16   10   35 1
  17   11   15 ar
  18   11   36 1
  19   12   13 ar
  20   12   37 1
  21   13   14 ar
  22   13   38 1
  23   14   15 ar
  24   14   22 1
  25   15   39 1
  26   16   17 ar
  27   16   21 ar
  28   17   18 ar
  29   17   40 1
  30   18   19 ar
  31   18   41 1
  32   19   20 ar
  33   19   26 1
  34   20   21 ar
  35   20   42 1
  36   21   43 1
  37   22   23 1
  38   23   24 1
  39   23   25 1
  40   23   44 1
  41   26   27 1
  42   27   28 ar
  43   27   29 ar
  44   28   32 ar
  45   28   45 1
  46   29   30 ar
  47   29   46 1
  48   30   31 ar
  49   30   47 1
  50   31   32 ar
  51   31   48 1
  52   32   49 1

#	End of record

