#	Name: ASD01001077
#	Creating user name:	WinNT
#	Creation time:	15. 06. 2019 18:55

#	Modifying user name:	WinNT
#	Modification time:	15. 06. 2019 18:55

#	Program:	/corina/corina34_cracker 3.40 0067  02.08.2006

@<TRIPOS>MOLECULE
ASD01001077
  36   38    0    0    0
SMALL
NO_CHARGES


@<TRIPOS>ATOM
   1 C1            -0.0166     1.3746     0.0096 C.ar    
   2 C2             0.0021    -0.0041     0.0020 C.ar    
   3 C3             1.1853     2.0867     0.0019 C.ar    
   4 C4             1.2090    -0.6839    -0.0127 C.ar    
   5 C5             2.4001     1.3952    -0.0134 C.ar    
   6 C6             1.1726     3.5611     0.0095 C.2     
   7 C7             2.4042     0.0146    -0.0204 C.ar    
   8 N8             2.2182     4.3135     0.0031 N.2     
   9 N9             1.9376     5.6783     0.0119 N.am    
  10 C10            0.4778     5.8638     0.0264 C.3     
  11 C11           -0.0698     4.4228     0.0194 C.3     
  12 C12            2.8535     6.6670     0.0084 C.2     
  13 C13            0.0483     6.5932     1.2733 C.ar    
  14 C14           -0.9613     7.5353     1.2098 C.ar    
  15 C15           -1.3552     8.2044     2.3535 C.ar    
  16 C16           -0.7399     7.9310     3.5607 C.ar    
  17 C17            0.2691     6.9883     3.6244 C.ar    
  18 C18            0.6601     6.3161     2.4815 C.ar    
  19 C19            4.3229     6.3329    -0.0066 C.3     
  20 O20            2.4951     7.8259     0.0174 O.2     
  21 Cl21           3.8995     2.2700    -0.0230 Cl      
  22 Cl22           1.2227    -2.4199    -0.0210 Cl      
  23 H23           -0.9585     1.9029     0.0169 H       
  24 H24           -0.9266    -0.5554     0.0079 H       
  25 H25            3.3417    -0.5215    -0.0315 H       
  26 H26            0.1503     6.3995    -0.8646 H       
  27 H27           -0.6706     4.2465    -0.8728 H       
  28 H28           -0.6546     4.2316     0.9192 H       
  29 H29           -1.4421     7.7489     0.2666 H       
  30 H30           -2.1435     8.9409     2.3037 H       
  31 H31           -1.0472     8.4543     4.4542 H       
  32 H32            0.7501     6.7750     4.5676 H       
  33 H33            1.4484     5.5795     2.5312 H       
  34 H34            4.4493     5.2502    -0.0131 H       
  35 H35            4.7830     6.7577    -0.8988 H       
  36 H36            4.7992     6.7490     0.8811 H       
@<TRIPOS>BOND
   1    1    2 ar
   2    1    3 ar
   3    1   23 1
   4    2    4 ar
   5    2   24 1
   6    3    6 1
   7    3    5 ar
   8    4    7 ar
   9    4   22 1
  10    5   21 1
  11    5    7 ar
  12    6    8 2
  13    6   11 1
  14    7   25 1
  15    8    9 1
  16    9   10 1
  17    9   12 am
  18   10   11 1
  19   10   13 1
  20   10   26 1
  21   11   27 1
  22   11   28 1
  23   12   19 1
  24   12   20 2
  25   13   14 ar
  26   13   18 ar
  27   14   15 ar
  28   14   29 1
  29   15   16 ar
  30   15   30 1
  31   16   17 ar
  32   16   31 1
  33   17   18 ar
  34   17   32 1
  35   18   33 1
  36   19   34 1
  37   19   35 1
  38   19   36 1

#	End of record

