#	Name: ASD01916444
#	Creating user name:	WinNT
#	Creation time:	15. 06. 2019 20:07

#	Modifying user name:	WinNT
#	Modification time:	15. 06. 2019 20:07

#	Program:	/corina/corina34_cracker 3.40 0067  02.08.2006

@<TRIPOS>MOLECULE
ASD01916444
  44   47    0    0    0
SMALL
NO_CHARGES


@<TRIPOS>ATOM
   1 C1            -0.0171     1.4078     0.0098 C.ar    
   2 C2             0.0021    -0.0041     0.0020 C.ar    
   3 N3            -1.1277    -0.7007     0.0121 N.ar    
   4 C4            -2.2987    -0.1104     0.0279 C.ar    
   5 C5            -2.4081     1.2907     0.0348 C.ar    
   6 C6            -1.2491     2.0684     0.0309 C.ar    
   7 N7             1.1546     2.0830     0.0022 N.2     
   8 C8             2.3123     1.4776    -0.0133 C.2     
   9 N9             2.4248     0.1224    -0.0273 N.am    
  10 C10            1.3175    -0.6628    -0.0181 C.2     
  11 C11            3.6980     2.1025    -0.0169 C.3     
  12 C12            4.6396     0.9509     0.3959 C.3     
  13 C13            3.8391    -0.2888    -0.0532 C.3     
  14 C14           -3.6969     1.9147     0.0509 C.1     
  15 C15           -4.7535     2.4263     0.0641 C.1     
  16 C16           -6.0423     3.0502     0.0802 C.ar    
  17 N17           -6.1334     4.3766     0.0866 N.ar    
  18 C18           -7.2998     4.9877     0.1014 C.ar    
  19 C19           -8.4802     4.2667     0.1113 C.ar    
  20 C20           -8.4323     2.8791     0.1051 C.ar    
  21 C21           -7.1953     2.2608     0.0833 C.ar    
  22 O22            1.4102    -1.8764    -0.0255 O.2     
  23 C23            5.9730     1.0406    -0.3490 C.3     
  24 C24            6.7255     2.2942     0.1015 C.3     
  25 O25            7.9709     2.3780    -0.5942 O.3     
  26 C26            8.7563     3.5196    -0.2448 C.3     
  27 H27           -3.1955    -0.7121     0.0353 H       
  28 H28           -1.3024     3.1471     0.0367 H       
  29 H29            3.9509     2.4623    -1.0142 H       
  30 H30            3.7509     2.9157     0.7070 H       
  31 H31            4.7970     0.9436     1.4745 H       
  32 H32            4.0040    -1.1148     0.6386 H       
  33 H33            4.1287    -0.5787    -1.0633 H       
  34 H34           -7.3353     6.0671     0.1062 H       
  35 H35           -9.4311     4.7787     0.1241 H       
  36 H36           -9.3410     2.2955     0.1129 H       
  37 H37           -7.1214     1.1833     0.0779 H       
  38 H38            6.5728     0.1577    -0.1279 H       
  39 H39            5.7871     1.0942    -1.4217 H       
  40 H40            6.1257     3.1771    -0.1195 H       
  41 H41            6.9115     2.2406     1.1742 H       
  42 H42            8.1986     4.4279    -0.4730 H       
  43 H43            8.9843     3.4913     0.8207 H       
  44 H44            9.6849     3.5103    -0.8155 H       
@<TRIPOS>BOND
   1    1    2 ar
   2    1    7 1
   3    1    6 ar
   4    2    3 ar
   5    2   10 1
   6    3    4 ar
   7    4    5 ar
   8    4   27 1
   9    5    6 ar
  10    5   14 1
  11    6   28 1
  12    7    8 2
  13    8    9 1
  14    8   11 1
  15    9   10 am
  16    9   13 1
  17   10   22 2
  18   11   12 1
  19   11   29 1
  20   11   30 1
  21   12   13 1
  22   12   23 1
  23   12   31 1
  24   13   32 1
  25   13   33 1
  26   14   15 3
  27   15   16 1
  28   16   17 ar
  29   16   21 ar
  30   17   18 ar
  31   18   19 ar
  32   18   34 1
  33   19   20 ar
  34   19   35 1
  35   20   21 ar
  36   20   36 1
  37   21   37 1
  38   23   24 1
  39   23   38 1
  40   23   39 1
  41   24   25 1
  42   24   40 1
  43   24   41 1
  44   25   26 1
  45   26   42 1
  46   26   43 1
  47   26   44 1

#	End of record

