#	Name: ASD00990013
#	Creating user name:	WinNT
#	Creation time:	15. 06. 2019 18:54

#	Modifying user name:	WinNT
#	Modification time:	15. 06. 2019 18:54

#	Program:	/corina/corina34_cracker 3.40 0067  02.08.2006

@<TRIPOS>MOLECULE
ASD00990013
  36   37    0    0    0
SMALL
NO_CHARGES


@<TRIPOS>ATOM
   1 N1            -0.0162     1.3400     0.0094 N.am    
   2 C2             0.0021    -0.0041     0.0020 C.2     
   3 C3             1.4295    -0.5050    -0.0042 C.3     
   4 C4             2.2649     0.7251     0.4200 C.3     
   5 C5             1.3438     1.8917    -0.0006 C.3     
   6 C6            -1.6480     2.4206     1.4442 C.2     
   7 C7            -1.2368     2.1501     0.0198 C.3     
   8 O8            -0.9866     1.9801     2.3604 O.2     
   9 N9            -2.7507     3.1521     1.6998 N.am    
  10 O10           -0.9826    -0.7121     0.0009 O.2     
  11 N11           -3.1330     3.4036     3.0240 N.am    
  12 C12           -4.2358     4.1351     3.2797 C.2     
  13 O13           -4.8972     4.5755     2.3634 O.2     
  14 N14           -5.5826     5.5580     4.7632 N.3     
  15 C15           -4.6470     4.4056     4.7040 C.3     
  16 C16           -5.4572     3.2175     5.2654 C.3     
  17 C17           -6.5457     3.8576     6.1514 C.3     
  18 C18           -6.3016     5.3787     6.0508 C.3     
  19 H19            1.5524    -1.3157     0.7140 H       
  20 H20            1.7143    -0.8332    -1.0039 H       
  21 H21            2.4332     0.7297     1.4970 H       
  22 H22            3.2104     0.7599    -0.1212 H       
  23 H23            1.6040     2.2356    -1.0017 H       
  24 H24            1.4235     2.7115     0.7133 H       
  25 H25           -1.0500     3.0951    -0.4902 H       
  26 H26           -2.0343     1.6121    -0.4927 H       
  27 H27           -3.2797     3.5044     0.9670 H       
  28 H28           -2.6040     3.0513     3.7568 H       
  29 H29           -5.0802     6.4329     4.7484 H       
  30 H30           -3.7708     4.5951     5.3241 H       
  31 H31           -5.9142     2.6531     4.4526 H       
  32 H32           -4.8152     2.5701     5.8628 H       
  33 H33           -7.5370     3.6075     5.7734 H       
  34 H34           -6.4380     3.5244     7.1836 H       
  35 H35           -5.6844     5.7205     6.8816 H       
  36 H36           -7.2501     5.9156     6.0346 H       
@<TRIPOS>BOND
   1    1    2 am
   2    1    5 1
   3    1    7 1
   4    2    3 1
   5    2   10 2
   6    3    4 1
   7    3   19 1
   8    3   20 1
   9    4    5 1
  10    4   21 1
  11    4   22 1
  12    5   23 1
  13    5   24 1
  14    6    7 1
  15    6    8 2
  16    6    9 am
  17    7   25 1
  18    7   26 1
  19    9   11 1
  20    9   27 1
  21   11   12 am
  22   11   28 1
  23   12   13 2
  24   12   15 1
  25   14   15 1
  26   14   18 1
  27   14   29 1
  28   15   16 1
  29   15   30 1
  30   16   17 1
  31   16   31 1
  32   16   32 1
  33   17   18 1
  34   17   33 1
  35   17   34 1
  36   18   35 1
  37   18   36 1

#	End of record

