#	Name: ASD01914205
#	Creating user name:	WinNT
#	Creation time:	15. 06. 2019 20:03

#	Modifying user name:	WinNT
#	Modification time:	15. 06. 2019 20:03

#	Program:	/corina/corina34_cracker 3.40 0067  02.08.2006

@<TRIPOS>MOLECULE
ASD01914205
  40   41    0    0    0
SMALL
NO_CHARGES


@<TRIPOS>ATOM
   1 C1            -0.0922     1.4762    -0.0045 C.2     
   2 C2            -0.1717     0.0031    -0.0144 C.ar    
   3 C3             0.2787    -0.7197    -1.1279 C.ar    
   4 C4             0.1997    -2.1041    -1.1262 C.ar    
   5 C5            -0.3206    -2.7664    -0.0318 C.ar    
   6 C6            -0.7666    -2.0559     1.0703 C.ar    
   7 C7            -0.6907    -0.6798     1.0878 C.ar    
   8 O8             0.9059     2.0341    -0.4180 O.2     
   9 N9            -1.1282     2.2039     0.4579 N.am    
  10 C10           -1.0077     3.6594     0.5727 C.3     
  11 C11           -1.4630     4.3134    -0.7334 C.3     
  12 C12           -1.3419     5.7758    -0.6181 C.1     
  13 C13           -1.2453     6.9422    -0.5261 C.1     
  14 C14           -1.1275     8.3650    -0.4140 C.ar    
  15 C15           -1.4882     9.1766    -1.4902 C.ar    
  16 C16           -1.3686    10.5493    -1.3662 C.ar    
  17 C17           -0.8921    11.0679    -0.1700 C.ar    
  18 C18           -0.5528    10.2057     0.8564 C.ar    
  19 N19           -0.6809     8.9022     0.7155 N.ar    
  20 C20           -2.3748     1.5392     0.8457 C.3     
  21 O21            0.7891    -0.0677    -2.2024 O.3     
  22 C22            1.2280    -0.8705    -3.3001 C.3     
  23 H23            0.5451    -2.6650    -1.9820 H       
  24 H24           -0.3803    -3.8448    -0.0354 H       
  25 H25           -1.1719    -2.5828     1.9215 H       
  26 H26           -1.0359    -0.1301     1.9510 H       
  27 H27           -1.6329     4.0122     1.3929 H       
  28 H28            0.0316     3.9236     0.7683 H       
  29 H29           -0.8378     3.9606    -1.5537 H       
  30 H30           -2.5022     4.0492    -0.9290 H       
  31 H31           -1.8551     8.7394    -2.4071 H       
  32 H32           -1.6396    11.2029    -2.1821 H       
  33 H33           -0.7870    12.1351    -0.0422 H       
  34 H34           -0.1815    10.6067     1.7879 H       
  35 H35           -2.3075     1.2188     1.8854 H       
  36 H36           -3.2073     2.2338     0.7328 H       
  37 H37           -2.5373     0.6706     0.2076 H       
  38 H38            0.3898    -1.4532    -3.6821 H       
  39 H39            1.6127    -0.2261    -4.0906 H       
  40 H40            2.0163    -1.5445    -2.9649 H       
@<TRIPOS>BOND
   1    1    2 1
   2    1    8 2
   3    1    9 am
   4    2    3 ar
   5    2    7 ar
   6    3    4 ar
   7    3   21 1
   8    4    5 ar
   9    4   23 1
  10    5    6 ar
  11    5   24 1
  12    6    7 ar
  13    6   25 1
  14    7   26 1
  15    9   10 1
  16    9   20 1
  17   10   11 1
  18   10   27 1
  19   10   28 1
  20   11   12 1
  21   11   29 1
  22   11   30 1
  23   12   13 3
  24   13   14 1
  25   14   15 ar
  26   14   19 ar
  27   15   16 ar
  28   15   31 1
  29   16   17 ar
  30   16   32 1
  31   17   18 ar
  32   17   33 1
  33   18   19 ar
  34   18   34 1
  35   20   35 1
  36   20   36 1
  37   20   37 1
  38   21   22 1
  39   22   38 1
  40   22   39 1
  41   22   40 1

#	End of record

