#	Name: ASD08710009
#	Creating user name:	WinNT
#	Creation time:	15. 06. 2019 21:19

#	Modifying user name:	WinNT
#	Modification time:	15. 06. 2019 21:19

#	Program:	/corina/corina34_cracker 3.40 0067  02.08.2006

@<TRIPOS>MOLECULE
ASD08710009
  35   36    0    0    0
SMALL
NO_CHARGES


@<TRIPOS>ATOM
   1 C1             0.0880     1.3199     0.2999 C.3     
   2 C2             0.1851    -0.1934     0.0791 C.3     
   3 N3             1.4275     1.9137     0.1951 N.3     
   4 C4             2.3198     1.4047     1.2452 C.3     
   5 C5             2.5083    -0.1051     1.0631 C.3     
   6 N6             1.1820    -0.7388     1.0128 N.am    
   7 S7             0.8205    -2.0318     1.9823 S.o2    
   8 C8            -1.1759    -0.8399     0.3449 C.3     
   9 O9             1.8355    -2.0848     2.9754 O.2     
  10 O10           -0.5630    -1.9286     2.2896 O.2     
  11 C11            1.0057    -3.4853     1.0036 C.ar    
  12 C12            2.2561    -4.0500     0.8343 C.ar    
  13 C13           -0.1002    -4.0642     0.4097 C.ar    
  14 C14            0.0450    -5.2045    -0.3580 C.ar    
  15 C15            1.2963    -5.7657    -0.5323 C.ar    
  16 C16            2.4013    -5.1902     0.0665 C.ar    
  17 C17            1.4545    -7.0091    -1.3689 C.3     
  18 F18            1.6883    -6.6487    -2.7003 F       
  19 F19            2.5357    -7.7577    -0.8917 F       
  20 F20            0.2865    -7.7752    -1.2913 F       
  21 H21           -0.5638     1.7568    -0.4566 H       
  22 H22           -0.3208     1.5174     1.2909 H       
  23 H23            0.4918    -0.3947    -0.9473 H       
  24 H24            1.8213     1.7582    -0.7208 H       
  25 H25            3.2865     1.9032     1.1742 H       
  26 H26            1.8799     1.6010     2.2229 H       
  27 H27            3.0417    -0.2979     0.1323 H       
  28 H28            3.0747    -0.5073     1.9030 H       
  29 H29           -1.8864    -0.5171    -0.4161 H       
  30 H30           -1.0756    -1.9248     0.3115 H       
  31 H31           -1.5354    -0.5384     1.3288 H       
  32 H32            3.1195    -3.6000     1.3017 H       
  33 H33           -1.0778    -3.6258     0.5459 H       
  34 H34           -0.8191    -5.6572    -0.8214 H       
  35 H35            3.3789    -5.6287    -0.0696 H       
@<TRIPOS>BOND
   1    1    2 1
   2    1    3 1
   3    1   21 1
   4    1   22 1
   5    2    8 1
   6    2    6 1
   7    2   23 1
   8    3    4 1
   9    3   24 1
  10    4    5 1
  11    4   25 1
  12    4   26 1
  13    5    6 1
  14    5   27 1
  15    5   28 1
  16    6    7 am
  17    7    9 2
  18    7   10 2
  19    7   11 1
  20    8   29 1
  21    8   30 1
  22    8   31 1
  23   11   12 ar
  24   11   13 ar
  25   12   16 ar
  26   12   32 1
  27   13   14 ar
  28   13   33 1
  29   14   15 ar
  30   14   34 1
  31   15   16 ar
  32   15   17 1
  33   16   35 1
  34   17   18 1
  35   17   19 1
  36   17   20 1

#	End of record

