#	Name: ASD00069298
#	Creating user name:	WinNT
#	Creation time:	15. 06. 2019 18:29

#	Modifying user name:	WinNT
#	Modification time:	15. 06. 2019 18:29

#	Program:	/corina/corina34_cracker 3.40 0067  02.08.2006

@<TRIPOS>MOLECULE
ASD00069298
  83   86    0    0    0
SMALL
NO_CHARGES


@<TRIPOS>ATOM
   1 C1            -0.0162     1.3067     0.0437 C.2     
   2 N2            -0.0002    -0.0077     0.0318 N.2     
   3 C3             1.2709    -0.4284     0.0344 C.2     
   4 C4             2.0810     0.6729     0.0485 C.2     
   5 N5             1.2747     1.7577     0.0543 N.pl3   
   6 C6            -1.2235     2.1528     0.0398 C.2     
   7 O7            -1.1171     3.3643     0.0514 O.2     
   8 N8            -2.4452     1.5838     0.0232 N.am    
   9 C9             1.7045     3.1582     0.0685 C.3     
  10 O10            3.1322     3.2183     0.0766 O.3     
  11 C11            3.6579     4.5470     0.0907 C.3     
  12 C12            5.1869     4.4904     0.0982 C.3     
  13 Si13           5.8723     6.2227     0.1166 Si      
  14 C14            5.2761     7.1102     1.6422 C.3     
  15 C15            7.7340     6.1538     0.1258 C.3     
  16 C16            5.2921     7.1362    -1.3999 C.3     
  17 C17            1.2585    -4.1897     0.0004 C.ar    
  18 C18            0.7966    -2.8898     0.0099 C.ar    
  19 C19            1.7213    -1.8417     0.0242 C.ar    
  20 C20            3.0824    -2.1617     0.0282 C.ar    
  21 C21            3.4577    -3.4888     0.0179 C.ar    
  22 N22            2.5522    -4.4487     0.0046 N.ar    
  23 C23            0.2723    -5.3291    -0.0087 C.3     
  24 C24           -3.5906     2.3811     0.1389 C.ar    
  25 C25           -4.7601     2.0259    -0.5319 C.ar    
  26 C26           -5.8923     2.8210    -0.4129 C.ar    
  27 C27           -5.8566     3.9619     0.3701 C.ar    
  28 C28           -4.6958     4.3129     1.0343 C.ar    
  29 C29           -3.5663     3.5233     0.9258 C.ar    
  30 F30           -7.0279     2.4814    -1.0612 F       
  31 N31           -4.7928     0.8709    -1.3238 N.3     
  32 C32           -5.8072    -0.0726    -0.8368 C.3     
  33 C33           -5.7157    -1.3772    -1.6316 C.3     
  34 C34           -5.9388    -1.0808    -3.1172 C.3     
  35 C35           -4.8996    -0.0593    -3.5874 C.3     
  36 C36           -5.0147     1.2071    -2.7359 C.3     
  37 C37           -5.8875    -2.0541    -5.4177 C.3     
  38 C38           -5.7883    -2.3718    -3.9243 C.3     
  39 C39           -4.4270    -3.0036    -3.6266 C.3     
  40 N40           -6.8555    -3.3098    -3.5512 N.3     
  41 H41            3.1610     0.6756     0.0545 H       
  42 H42           -2.5310     0.6220    -0.0688 H       
  43 H43            1.3245     3.6639    -0.8192 H       
  44 H44            1.3151     3.6487     0.9607 H       
  45 H45            3.3185     5.0815    -0.7966 H       
  46 H46            3.3091     5.0663     0.9833 H       
  47 H47            5.5263     3.9559     0.9855 H       
  48 H48            5.5357     3.9711    -0.7944 H       
  49 H49            5.6156     6.5758     2.5295 H       
  50 H50            5.6771     8.1237     1.6530 H       
  51 H51            4.1869     7.1505     1.6369 H       
  52 H52            8.0828     5.6345    -0.7668 H       
  53 H53            8.1350     7.1673     0.1366 H       
  54 H54            8.0734     5.6193     1.0131 H       
  55 H55            4.2029     7.1765    -1.4053 H       
  56 H56            5.6932     8.1497    -1.3891 H       
  57 H57            5.6409     6.6169    -2.2925 H       
  58 H58           -0.2638    -2.6850     0.0060 H       
  59 H59            3.8288    -1.3812     0.0388 H       
  60 H60            4.5066    -3.7458     0.0206 H       
  61 H61            0.0350    -5.5961    -1.0385 H       
  62 H62            0.7071    -6.1901     0.4989 H       
  63 H63           -0.6387    -5.0252     0.5070 H       
  64 H64           -6.7376     4.5797     0.4621 H       
  65 H65           -4.6729     5.2043     1.6437 H       
  66 H66           -2.6631     3.7984     1.4501 H       
  67 H67           -5.6347    -0.2780     0.2197 H       
  68 H68           -6.7986     0.3620    -0.9649 H       
  69 H69           -4.7292    -1.8194    -1.4928 H       
  70 H70           -6.4791    -2.0715    -1.2804 H       
  71 H71           -6.9400    -0.6746    -3.2613 H       
  72 H72           -3.9002    -0.4808    -3.4794 H       
  73 H73           -5.0798     0.1880    -4.6336 H       
  74 H74           -6.0098     1.6357    -2.8551 H       
  75 H75           -4.2666     1.9311    -3.0588 H       
  76 H76           -5.0956    -1.3582    -5.6945 H       
  77 H77           -5.7803    -2.9739    -5.9927 H       
  78 H78           -6.8573    -1.6040    -5.6297 H       
  79 H79           -4.3563    -3.2300    -2.5627 H       
  80 H80           -4.3198    -3.9234    -4.2017 H       
  81 H81           -3.6351    -2.3077    -3.9035 H       
  82 H82           -7.7650    -2.8916    -3.6779 H       
  83 H83           -6.7780    -4.1711    -4.0711 H       
@<TRIPOS>BOND
   1    1    2 2
   2    1    5 1
   3    1    6 1
   4    2    3 1
   5    3    4 2
   6    3   19 1
   7    4    5 1
   8    4   41 1
   9    5    9 1
  10    6    7 2
  11    6    8 am
  12    8   24 1
  13    8   42 1
  14    9   10 1
  15    9   43 1
  16    9   44 1
  17   10   11 1
  18   11   12 1
  19   11   45 1
  20   11   46 1
  21   12   13 1
  22   12   47 1
  23   12   48 1
  24   13   14 1
  25   13   15 1
  26   13   16 1
  27   14   49 1
  28   14   50 1
  29   14   51 1
  30   15   52 1
  31   15   53 1
  32   15   54 1
  33   16   55 1
  34   16   56 1
  35   16   57 1
  36   17   18 ar
  37   17   22 ar
  38   17   23 1
  39   18   19 ar
  40   18   58 1
  41   19   20 ar
  42   20   21 ar
  43   20   59 1
  44   21   22 ar
  45   21   60 1
  46   23   61 1
  47   23   62 1
  48   23   63 1
  49   24   25 ar
  50   24   29 ar
  51   25   26 ar
  52   25   31 1
  53   26   27 ar
  54   26   30 1
  55   27   28 ar
  56   27   64 1
  57   28   29 ar
  58   28   65 1
  59   29   66 1
  60   31   32 1
  61   31   36 1
  62   32   33 1
  63   32   67 1
  64   32   68 1
  65   33   34 1
  66   33   69 1
  67   33   70 1
  68   34   35 1
  69   34   38 1
  70   34   71 1
  71   35   36 1
  72   35   72 1
  73   35   73 1
  74   36   74 1
  75   36   75 1
  76   37   38 1
  77   37   76 1
  78   37   77 1
  79   37   78 1
  80   38   39 1
  81   38   40 1
  82   39   79 1
  83   39   80 1
  84   39   81 1
  85   40   82 1
  86   40   83 1

#	End of record

