#	Name: ASD01917730
#	Creating user name:	WinNT
#	Creation time:	15. 06. 2019 20:09

#	Modifying user name:	WinNT
#	Modification time:	15. 06. 2019 20:09

#	Program:	/corina/corina34_cracker 3.40 0067  02.08.2006

@<TRIPOS>MOLECULE
ASD01917730
  43   46    0    0    0
SMALL
NO_CHARGES


@<TRIPOS>ATOM
   1 C1            -0.0056     1.3611     0.1981 C.ar    
   2 C2            -0.0017     0.0023    -0.0636 C.ar    
   3 C3             1.1878    -0.6565    -0.3204 C.ar    
   4 C4             2.3792     0.0382    -0.3177 C.ar    
   5 C5             2.3832     1.4107    -0.0548 C.ar    
   6 C6             1.1780     2.0690     0.2042 C.ar    
   7 C7             3.6162     2.1388    -0.0497 C.1     
   8 C8             4.6272     2.7357    -0.0456 C.1     
   9 C9             5.8603     3.4638    -0.0406 C.ar    
  10 C10            5.8725     4.8418     0.2226 C.ar    
  11 C11            7.0861     5.4995     0.2167 C.ar    
  12 C12            8.2483     4.7810    -0.0476 C.ar    
  13 N13            8.2042     3.4800    -0.2925 N.ar    
  14 C14            7.0695     2.8118    -0.2918 C.ar    
  15 N15            9.4755     5.4395    -0.0553 N.am    
  16 C16            9.6417     6.7682    -0.0505 C.2     
  17 N17           10.9235     7.1555    -0.0598 N.am    
  18 C18           11.7897     5.9681    -0.0730 C.3     
  19 C19           10.7917     4.7853    -0.0635 C.3     
  20 C20           12.5641     5.8884     1.2578 C.3     
  21 C21           11.6211     5.1038     2.2028 C.3     
  22 C22           11.0085     4.0428     1.2702 C.3     
  23 H23           12.4449     5.9498    -0.9439 H       
  24 H24           10.9147     4.1377    -0.9316 H       
  25 C25           11.3893     8.5445    -0.0578 C.3     
  26 O26            8.7126     7.5523    -0.0393 O.2     
  27 H27           -0.9383     1.8694     0.3936 H       
  28 H28           -0.9317    -0.5469    -0.0670 H       
  29 H29            1.1832    -1.7172    -0.5231 H       
  30 H30            3.3069    -0.4772    -0.5180 H       
  31 H31            1.1734     3.1297     0.4078 H       
  32 H32            4.9552     5.3748     0.4243 H       
  33 H33            7.1332     6.5602     0.4148 H       
  34 H34            7.0731     1.7512    -0.4955 H       
  35 H35           13.5017     5.3496     1.1216 H       
  36 H36           12.7514     6.8880     1.6502 H       
  37 H37           12.1857     4.6295     3.0055 H       
  38 H38           10.8479     5.7573     2.6069 H       
  39 H39           10.0560     3.6911     1.6666 H       
  40 H40           11.6979     3.2091     1.1366 H       
  41 H41           10.5305     9.2157    -0.0471 H       
  42 H42           12.0000     8.7217     0.8275 H       
  43 H43           11.9839     8.7296    -0.9524 H       
@<TRIPOS>BOND
   1    1    2 ar
   2    1    6 ar
   3    1   27 1
   4    2    3 ar
   5    2   28 1
   6    3    4 ar
   7    3   29 1
   8    4    5 ar
   9    4   30 1
  10    5    6 ar
  11    5    7 1
  12    6   31 1
  13    7    8 3
  14    8    9 1
  15    9   10 ar
  16    9   14 ar
  17   10   11 ar
  18   10   32 1
  19   11   12 ar
  20   11   33 1
  21   12   13 ar
  22   12   15 1
  23   13   14 ar
  24   14   34 1
  25   15   16 am
  26   15   19 1
  27   16   17 am
  28   16   26 2
  29   17   18 1
  30   17   25 1
  31   18   19 1
  32   18   20 1
  33   18   23 1
  34   19   24 1
  35   19   22 1
  36   20   21 1
  37   20   35 1
  38   20   36 1
  39   21   22 1
  40   21   37 1
  41   21   38 1
  42   22   39 1
  43   22   40 1
  44   25   41 1
  45   25   42 1
  46   25   43 1

#	End of record

