#	Name: ASD04330001
#	Creating user name:	WinNT
#	Creation time:	15. 06. 2019 20:48

#	Modifying user name:	WinNT
#	Modification time:	15. 06. 2019 20:48

#	Program:	/corina/corina34_cracker 3.40 0067  02.08.2006

@<TRIPOS>MOLECULE
ASD04330001
  56   59    0    0    0
SMALL
NO_CHARGES


@<TRIPOS>ATOM
   1 C1             0.1126     1.8454    -0.1426 C.ar    
   2 C2             0.0318     0.4780     0.0317 C.ar    
   3 C3             1.1830    -0.2877     0.1236 C.ar    
   4 C4             2.4225     0.3097     0.0420 C.ar    
   5 C5             2.5164     1.6929    -0.1213 C.ar    
   6 C6             1.3522     2.4639    -0.2209 C.ar    
   7 O7             1.4354     3.8071    -0.3932 O.3     
   8 C8             3.6718    -0.5287     0.1096 C.3     
   9 C9             4.7732     0.2284     0.8483 C.3     
  10 C10            4.9898     1.5795     0.2217 C.2     
  11 C11            3.8448     2.3359    -0.1682 C.2     
  12 C12            6.0697    -0.5856     0.8140 C.3     
  13 C13            7.1898     0.2863     1.3744 C.3     
  14 C14            7.4893     1.4172     0.3902 C.3     
  15 C15            6.2024     2.1006     0.0144 C.2     
  16 C16            8.4317    -0.5206     1.6979 C.3     
  17 C17            9.1707    -0.9450     0.4645 C.2     
  18 C18            9.0088    -0.3102    -0.7417 C.2     
  19 C19            8.0695     0.8030    -0.8697 C.2     
  20 O20            3.9610     3.4918    -0.5337 O.2     
  21 O21            7.7588     1.2270    -1.9638 O.2     
  22 C22            9.7847    -0.7518    -1.9115 C.2     
  23 N23            9.3943    -1.8374    -2.6083 N.am    
  24 O24           10.7785    -0.1372    -2.2495 O.2     
  25 O25           10.0190    -1.9810     0.5422 O.3     
  26 N26            9.3253     0.2941     2.5320 N.3     
  27 O27            5.9243    -1.7593     1.6160 O.3     
  28 H28            4.4756     0.3628     1.8882 H       
  29 C29            3.3682    -1.8326     0.8502 C.3     
  30 H30            6.8373     0.7326     2.3043 H       
  31 C31            8.7137     0.5779     3.8372 C.3     
  32 C32           10.6327    -0.3559     2.6934 C.3     
  33 O33            6.2778     3.3140    -0.5678 O.3     
  34 O34            8.3969     2.3546     0.9730 O.3     
  35 H35           -0.7898     2.4334    -0.2224 H       
  36 H36           -0.9354     0.0020     0.0972 H       
  37 H37            1.1088    -1.3565     0.2600 H       
  38 H38            1.4600     4.0841    -1.3194 H       
  39 H39            4.0074    -0.7594    -0.9014 H       
  40 H40            6.3009    -0.8670    -0.2133 H       
  41 H41            8.1401    -1.4088     2.2584 H       
  42 H42            8.5642    -2.2857    -2.3829 H       
  43 H43            9.9434    -2.1703    -3.3354 H       
  44 H44           10.4265    -2.2776    -0.2831 H       
  45 H45            5.8027    -1.5793     2.5583 H       
  46 H46            2.5135    -2.3240     0.3853 H       
  47 H47            4.2365    -2.4896     0.8001 H       
  48 H48            3.1382    -1.6132     1.8929 H       
  49 H49            8.4049    -0.3571     4.3047 H       
  50 H50            9.4388     1.0815     4.4764 H       
  51 H51            7.8436     1.2197     3.6989 H       
  52 H52           11.1456    -0.3840     1.7321 H       
  53 H53           11.2323     0.2068     3.4089 H       
  54 H54           10.4902    -1.3728     3.0591 H       
  55 H55            6.7677     3.9991    -0.0928 H       
  56 H56            8.6867     3.0504     0.3672 H       
@<TRIPOS>BOND
   1    1    2 ar
   2    1    6 ar
   3    1   35 1
   4    2    3 ar
   5    2   36 1
   6    3    4 ar
   7    3   37 1
   8    4    5 ar
   9    4    8 1
  10    5    6 ar
  11    5   11 1
  12    6    7 1
  13    7   38 1
  14    8    9 1
  15    8   29 1
  16    8   39 1
  17    9   10 1
  18    9   28 1
  19    9   12 1
  20   10   11 1
  21   10   15 2
  22   11   20 2
  23   12   13 1
  24   12   27 1
  25   12   40 1
  26   13   14 1
  27   13   30 1
  28   13   16 1
  29   14   15 1
  30   14   34 1
  31   14   19 1
  32   15   33 1
  33   16   17 1
  34   16   26 1
  35   16   41 1
  36   17   18 2
  37   17   25 1
  38   18   19 1
  39   18   22 1
  40   19   21 2
  41   22   23 am
  42   22   24 2
  43   23   42 1
  44   23   43 1
  45   25   44 1
  46   26   31 1
  47   26   32 1
  48   27   45 1
  49   29   46 1
  50   29   47 1
  51   29   48 1
  52   31   49 1
  53   31   50 1
  54   31   51 1
  55   32   52 1
  56   32   53 1
  57   32   54 1
  58   33   55 1
  59   34   56 1

#	End of record

