#	Name: ASD01320116
#	Creating user name:	WinNT
#	Creation time:	15. 06. 2019 19:16

#	Modifying user name:	WinNT
#	Modification time:	15. 06. 2019 19:16

#	Program:	/corina/corina34_cracker 3.40 0067  02.08.2006

@<TRIPOS>MOLECULE
ASD01320116
  38   41    0    0    0
SMALL
NO_CHARGES


@<TRIPOS>ATOM
   1 C1            -0.0168     1.3911     0.0097 C.ar    
   2 N2             0.0021    -0.0041     0.0020 N.am    
   3 O3            -1.5158    -1.7095     0.0077 O.2     
   4 C4             1.0248     2.3163     0.0047 C.ar    
   5 N5            -2.9711     1.4185     2.2825 N.2     
   6 O6            -5.5322    -2.2584     1.3175 O.3     
   7 C7             0.7502     3.6685     0.0146 C.ar    
   8 N8            -4.4989    -1.4067     0.8572 N.2     
   9 O9            -7.4250    -3.8759     2.0836 O.2     
  10 C10           -0.5578     4.1162     0.0299 C.ar    
  11 O11           -7.4431    -5.2079     0.3203 O.3     
  12 C12           -1.5982     3.2029     0.0349 C.ar    
  13 C13           -1.3269     1.8535     0.0312 C.ar    
  14 C14           -1.2345    -0.5297     0.0110 C.2     
  15 C15           -2.2105     0.6273     0.0375 C.3     
  16 C16           -3.0501     0.5880     1.2883 C.2     
  17 C17           -4.1041    -0.4039     1.5923 C.2     
  18 C18           -3.8542     1.1399     3.2802 C.ar    
  19 C19           -4.6093     0.0049     2.9272 C.ar    
  20 C20           -5.5828    -0.4864     3.7802 C.ar    
  21 C21           -5.8160     0.1431     4.9902 C.ar    
  22 C22           -5.0795     1.2599     5.3466 C.ar    
  23 C23           -4.1062     1.7607     4.5067 C.ar    
  24 C24           -5.8626    -3.3134     0.4120 C.3     
  25 C25           -6.9674    -4.1527     1.0001 C.2     
  26 H26            0.8146    -0.5337    -0.0091 H       
  27 H27            2.0492     1.9745    -0.0065 H       
  28 H28            1.5616     4.3812     0.0107 H       
  29 H29           -0.7674     5.1756     0.0383 H       
  30 H30           -8.1518    -5.7160     0.7382 H       
  31 H31           -2.6212     3.5487     0.0469 H       
  32 H32           -2.8438     0.6084    -0.8495 H       
  33 H33           -6.1581    -1.3571     3.5022 H       
  34 H34           -6.5747    -0.2375     5.6580 H       
  35 H35           -5.2690     1.7447     6.2930 H       
  36 H36           -3.5384     2.6323     4.7974 H       
  37 H37           -6.1941    -2.8885    -0.5355 H       
  38 H38           -4.9838    -3.9359     0.2433 H       
@<TRIPOS>BOND
   1    1    2 1
   2    1    4 ar
   3    1   13 ar
   4    2   14 am
   5    2   26 1
   6    3   14 2
   7    4    7 ar
   8    4   27 1
   9    5   16 2
  10    5   18 1
  11    6    8 1
  12    6   24 1
  13    7   10 ar
  14    7   28 1
  15    8   17 2
  16    9   25 2
  17   10   12 ar
  18   10   29 1
  19   11   25 1
  20   11   30 1
  21   12   13 ar
  22   12   31 1
  23   13   15 1
  24   14   15 1
  25   15   16 1
  26   15   32 1
  27   16   17 1
  28   17   19 1
  29   18   19 ar
  30   18   23 ar
  31   19   20 ar
  32   20   21 ar
  33   20   33 1
  34   21   22 ar
  35   21   34 1
  36   22   23 ar
  37   22   35 1
  38   23   36 1
  39   24   25 1
  40   24   37 1
  41   24   38 1

#	End of record

