#	Name: ASD01940412
#	Creating user name:	WinNT
#	Creation time:	15. 06. 2019 20:12

#	Modifying user name:	WinNT
#	Modification time:	15. 06. 2019 20:12

#	Program:	/corina/corina34_cracker 3.40 0067  02.08.2006

@<TRIPOS>MOLECULE
ASD01940412
  43   44    0    0    0
SMALL
NO_CHARGES


@<TRIPOS>ATOM
   1 C1            -0.1331     1.5658     0.7163 C.ar    
   2 C2            -0.2405     0.3763     1.4244 C.ar    
   3 C3             0.8524    -0.1211     2.1072 C.ar    
   4 C4             2.0539     0.5642     2.0870 C.ar    
   5 C5             2.1659     1.7497     1.3830 C.ar    
   6 C6             1.0760     2.2531     0.6969 C.ar    
   7 N7            -1.2368     2.0688     0.0191 N.pl3   
   8 C8            -2.4024     1.3182    -0.0711 C.ar    
   9 C9            -4.8249     1.1736    -0.0442 C.ar    
  10 C10           -4.7348    -0.1918    -0.2521 C.ar    
  11 C11           -3.4951    -0.8011    -0.3636 C.ar    
  12 C12           -2.3342    -0.0519    -0.2739 C.ar    
  13 C13           -3.6556     1.9437     0.0485 C.ar    
  14 O14           -6.0403     1.7665     0.0645 O.3     
  15 C15           -7.1868     0.9207    -0.0455 C.3     
  16 C16           -8.4567     1.7614     0.1015 C.3     
  17 C17           -9.6843     0.8559    -0.0162 C.3     
  18 C18          -10.9490     1.6734     0.2544 C.3     
  19 O19          -12.0847     0.8062     0.2595 O.3     
  20 C20           -3.7405     3.3947     0.2697 C.2     
  21 N21           -3.7563     3.8852     1.5249 N.am    
  22 O22           -3.7964     4.1526    -0.6803 O.2     
  23 O23           -9.7457     0.3055    -1.3336 O.3     
  24 F24           -3.4188    -2.1346    -0.5660 F       
  25 F25            1.1853     3.4106     0.0088 F       
  26 I26            3.7075    -0.1947     3.1257 I       
  27 H27           -1.1781    -0.1595     1.4417 H       
  28 H28            0.7687    -1.0463     2.6580 H       
  29 H29            3.1053     2.2824     1.3691 H       
  30 H30           -1.1882     2.9417    -0.4012 H       
  31 H31           -5.6342    -0.7855    -0.3232 H       
  32 H32           -1.3728    -0.5359    -0.3625 H       
  33 H33           -7.1856     0.4317    -1.0196 H       
  34 H34           -7.1580     0.1656     0.7401 H       
  35 H35           -8.4580     2.2504     1.0757 H       
  36 H36           -8.4855     2.5165    -0.6841 H       
  37 H37           -9.6111     0.0481     0.7120 H       
  38 H38          -10.8632     2.1654     1.2232 H       
  39 H39          -11.0694     2.4252    -0.5256 H       
  40 H40          -12.9236     1.2577     0.4254 H       
  41 H41           -3.7117     3.2810     2.2824 H       
  42 H42           -3.8123     4.8426     1.6708 H       
  43 H43           -9.8120     0.9687    -2.0342 H       
@<TRIPOS>BOND
   1    1    2 ar
   2    1    6 ar
   3    1    7 1
   4    2    3 ar
   5    2   27 1
   6    3    4 ar
   7    3   28 1
   8    4    5 ar
   9    4   26 1
  10    5    6 ar
  11    5   29 1
  12    6   25 1
  13    7    8 1
  14    7   30 1
  15    8   13 ar
  16    8   12 ar
  17    9   10 ar
  18    9   13 ar
  19    9   14 1
  20   10   11 ar
  21   10   31 1
  22   11   12 ar
  23   11   24 1
  24   12   32 1
  25   13   20 1
  26   14   15 1
  27   15   16 1
  28   15   33 1
  29   15   34 1
  30   16   17 1
  31   16   35 1
  32   16   36 1
  33   17   18 1
  34   17   23 1
  35   17   37 1
  36   18   19 1
  37   18   38 1
  38   18   39 1
  39   19   40 1
  40   20   21 am
  41   20   22 2
  42   21   41 1
  43   21   42 1
  44   23   43 1

#	End of record

