#	Name: ASD01883965
#	Creating user name:	WinNT
#	Creation time:	15. 06. 2019 19:47

#	Modifying user name:	WinNT
#	Modification time:	15. 06. 2019 19:47

#	Program:	/corina/corina34_cracker 3.40 0067  02.08.2006

@<TRIPOS>MOLECULE
ASD01883965
  59   63    0    0    0
SMALL
NO_CHARGES


@<TRIPOS>ATOM
   1 C1            -0.0017     1.3483     0.2144 C.2     
   2 C2            -0.0306    -0.0527     0.1092 C.2     
   3 C3            -1.2297    -0.6820    -0.0880 C.2     
   4 C4            -2.4118     0.0845    -0.1820 C.2     
   5 C5            -2.3609     1.4269    -0.0788 C.2     
   6 N6            -1.1697     2.0643     0.1124 N.pl3   
   7 N7             0.9713     2.2271     0.4006 N.2     
   8 N8             0.4788     3.4155     0.4242 N.2     
   9 C9            -0.8163     3.3742     0.2532 C.2     
  10 C10            1.2428    -0.8520     0.2119 C.3     
  11 N11           -1.2836    -2.0684    -0.1957 N.pl3   
  12 C12           -1.7484     4.5577     0.2159 C.3     
  13 C13           -0.6587    -2.7556    -1.3341 C.3     
  14 C14           -1.7025    -3.6593    -1.9979 C.3     
  15 C15           -2.3001    -4.5985    -0.9477 C.3     
  16 C16           -2.9952    -3.7751     0.1390 C.3     
  17 C17           -1.9612    -2.8731     0.8299 C.3     
  18 C18           -3.3030    -5.5122    -1.6039 C.ar    
  19 C19           -3.9772    -6.4540    -0.8494 C.ar    
  20 C20           -4.8971    -7.2921    -1.4512 C.ar    
  21 C21           -5.1430    -7.1881    -2.8076 C.ar    
  22 C22           -4.4695    -6.2457    -3.5619 C.ar    
  23 C23           -3.5528    -5.4047    -2.9592 C.ar    
  24 F24            1.7559    -1.0785    -1.0698 F       
  25 F25            2.1795    -0.1416     0.9703 F       
  26 F26            0.9753    -2.0780     0.8305 F       
  27 C27           -1.1844    -5.4350    -0.3181 C.3     
  28 O28           -2.2183     4.8359     1.5365 O.3     
  29 C29           -3.1141     5.9466     1.6128 C.3     
  30 C30           -3.5504     6.1512     3.0649 C.3     
  31 C31           -4.4228     7.3690     3.3756 C.3     
  32 C32           -5.0341     5.9665     3.3895 C.3     
  33 H33           -3.3606    -0.4073    -0.3376 H       
  34 H34           -3.2708     2.0040    -0.1524 H       
  35 H35           -1.2167     5.4270    -0.1712 H       
  36 H36           -2.5960     4.3324    -0.4314 H       
  37 H37           -0.3018    -2.0194    -2.0543 H       
  38 H38            0.1771    -3.3603    -0.9819 H       
  39 H39           -2.4934    -3.0456    -2.4293 H       
  40 H40           -1.2279    -4.2471    -2.7837 H       
  41 H41           -3.7739    -3.1603    -0.3125 H       
  42 H42           -3.4406    -4.4452     0.8742 H       
  43 H43           -1.2336    -3.4894     1.3581 H       
  44 H44           -2.4655    -2.2135     1.5360 H       
  45 H45           -3.7851    -6.5352     0.2103 H       
  46 H46           -5.4234    -8.0284    -0.8619 H       
  47 H47           -5.8612    -7.8434    -3.2779 H       
  48 H48           -4.6614    -6.1647    -4.6216 H       
  49 H49           -3.0292    -4.6659    -3.5479 H       
  50 H50           -0.4585    -4.7744     0.1560 H       
  51 H51           -1.6098    -6.1040     0.4299 H       
  52 H52           -0.6900    -6.0224    -1.0918 H       
  53 H53           -2.6107     6.8446     1.2547 H       
  54 H54           -3.9900     5.7501     0.9945 H       
  55 H55           -2.8275     5.8439     3.8207 H       
  56 H56           -4.2741     7.8628     4.3359 H       
  57 H57           -4.6859     8.0246     2.5454 H       
  58 H58           -5.6994     5.6994     2.5685 H       
  59 H59           -5.2876     5.5376     4.3589 H       
@<TRIPOS>BOND
   1    1    2 1
   2    1    7 2
   3    1    6 1
   4    2    3 2
   5    2   10 1
   6    3    4 1
   7    3   11 1
   8    4    5 2
   9    4   33 1
  10    5    6 1
  11    5   34 1
  12    6    9 1
  13    7    8 1
  14    8    9 2
  15    9   12 1
  16   10   24 1
  17   10   25 1
  18   10   26 1
  19   11   13 1
  20   11   17 1
  21   12   28 1
  22   12   35 1
  23   12   36 1
  24   13   14 1
  25   13   37 1
  26   13   38 1
  27   14   15 1
  28   14   39 1
  29   14   40 1
  30   15   16 1
  31   15   18 1
  32   15   27 1
  33   16   17 1
  34   16   41 1
  35   16   42 1
  36   17   43 1
  37   17   44 1
  38   18   19 ar
  39   18   23 ar
  40   19   20 ar
  41   19   45 1
  42   20   21 ar
  43   20   46 1
  44   21   22 ar
  45   21   47 1
  46   22   23 ar
  47   22   48 1
  48   23   49 1
  49   27   50 1
  50   27   51 1
  51   27   52 1
  52   28   29 1
  53   29   30 1
  54   29   53 1
  55   29   54 1
  56   30   31 1
  57   30   32 1
  58   30   55 1
  59   31   32 1
  60   31   56 1
  61   31   57 1
  62   32   58 1
  63   32   59 1

#	End of record

