#	Name: ASD01900208
#	Creating user name:	WinNT
#	Creation time:	15. 06. 2019 19:51

#	Modifying user name:	WinNT
#	Modification time:	15. 06. 2019 19:51

#	Program:	/corina/corina34_cracker 3.40 0067  02.08.2006

@<TRIPOS>MOLECULE
ASD01900208
  39   41    0    0    0
SMALL
NO_CHARGES


@<TRIPOS>ATOM
   1 C1             0.5630     0.9777    -0.0007 C.ar    
   2 C2             0.7123    -0.4071     0.0182 C.ar    
   3 C3            -0.4201    -1.2065     0.0079 C.ar    
   4 C4            -1.6624    -0.5929    -0.0210 C.ar    
   5 C5            -1.7364     0.7910    -0.0385 C.ar    
   6 N6            -0.6459     1.5258    -0.0231 N.ar    
   7 C7             1.7631     1.8460     0.0105 C.2     
   8 O8             2.8723     1.3495     0.0361 O.2     
   9 N9             1.6251     3.1865    -0.0076 N.am    
  10 C10            2.7644     4.0108     0.0030 C.2     
  11 C11            4.1094     3.5799     0.0315 C.2     
  12 C12            4.8873     4.6810     0.0321 C.2     
  13 N13            4.0788     5.7783     0.0052 N.am    
  14 C14            2.7756     5.3640    -0.0181 C.2     
  15 S15            4.5905     7.3532    -0.0039 S.o2    
  16 O16            3.4791     8.1385     0.4053 O.2     
  17 O17            5.8438     7.3718     0.6654 O.2     
  18 C18            4.9153     7.7864    -1.6806 C.ar    
  19 C19            6.2188     7.8693    -2.1329 C.ar    
  20 C20            3.8663     8.0379    -2.5454 C.ar    
  21 C21            4.1211     8.3777    -3.8606 C.ar    
  22 C22            5.4251     8.4666    -4.3114 C.ar    
  23 C23            6.4737     8.2098    -3.4484 C.ar    
  24 C24            7.3621     7.5892    -1.1919 C.3     
  25 F25            8.5678     7.6208    -1.9006 F       
  26 F26            7.3869     8.5610    -0.1858 F       
  27 F27            7.1929     6.3257    -0.6156 F       
  28 H28            1.6963    -0.8516     0.0402 H       
  29 H29           -0.3362    -2.2832     0.0217 H       
  30 H30           -2.5641    -1.1872    -0.0300 H       
  31 H31           -2.7028     1.2725    -0.0614 H       
  32 H32            0.7400     3.5827    -0.0280 H       
  33 H33            4.4518     2.5558     0.0500 H       
  34 H34            5.9670     4.6920     0.0514 H       
  35 H35            1.9067     6.0051    -0.0424 H       
  36 H36            2.8477     7.9684    -2.1932 H       
  37 H37            3.3017     8.5734    -4.5363 H       
  38 H38            5.6243     8.7318    -5.3392 H       
  39 H39            7.4923     8.2792    -3.8005 H       
@<TRIPOS>BOND
   1    1    2 ar
   2    1    7 1
   3    1    6 ar
   4    2    3 ar
   5    2   28 1
   6    3    4 ar
   7    3   29 1
   8    4    5 ar
   9    4   30 1
  10    5    6 ar
  11    5   31 1
  12    7    8 2
  13    7    9 am
  14    9   10 1
  15    9   32 1
  16   10   11 1
  17   10   14 2
  18   11   12 2
  19   11   33 1
  20   12   13 1
  21   12   34 1
  22   13   14 1
  23   13   15 am
  24   14   35 1
  25   15   16 2
  26   15   17 2
  27   15   18 1
  28   18   19 ar
  29   18   20 ar
  30   19   24 1
  31   19   23 ar
  32   20   21 ar
  33   20   36 1
  34   21   22 ar
  35   21   37 1
  36   22   23 ar
  37   22   38 1
  38   23   39 1
  39   24   25 1
  40   24   26 1
  41   24   27 1

#	End of record

