#	Name: ASD03920020
#	Creating user name:	WinNT
#	Creation time:	15. 06. 2019 20:47

#	Modifying user name:	WinNT
#	Modification time:	15. 06. 2019 20:47

#	Program:	/corina/corina34_cracker 3.40 0067  02.08.2006

@<TRIPOS>MOLECULE
ASD03920020
  57   59    0    0    0
SMALL
NO_CHARGES


@<TRIPOS>ATOM
   1 N1            -0.2740     0.8828    -0.6832 N.pl3   
   2 N2             0.0971     0.1140     0.4290 N.2     
   3 N3             1.2811    -0.3491     0.2253 N.2     
   4 C4             1.7276     0.0699    -0.9711 C.2     
   5 C5             0.7598     0.8424    -1.5476 C.2     
   6 C6             3.0412    -0.2498    -1.5616 C.2     
   7 O7             3.2988     0.1004    -2.6971 O.2     
   8 N8             3.9558    -0.9300    -0.8423 N.am    
   9 C9             5.2142    -1.3479    -1.4651 C.3     
  10 C10            6.2947    -0.3020    -1.1833 C.3     
  11 C11            3.6915    -1.2514     0.5623 C.3     
  12 C12            2.9217    -2.5709     0.6474 C.3     
  13 C13           -1.5436     1.5889    -0.8725 C.3     
  14 C14           -2.1616     1.9017     0.4918 C.3     
  15 C15           -1.2031     2.7824     1.2960 C.3     
  16 C16           -0.9527     4.0877     0.5382 C.3     
  17 C17           -0.3347     3.7750    -0.8261 C.3     
  18 C18           -1.2931     2.8943    -1.6303 C.3     
  19 C19           -0.0472     6.2682     1.1405 C.2     
  20 C20            0.8968     7.1357     1.9326 C.3     
  21 O21           -0.8180     6.7734     0.3521 O.2     
  22 N22           -0.0350     4.9310     1.3082 N.am    
  23 C23            0.6827     8.5804     1.5612 C.ar    
  24 C24           -0.2360     9.3451     2.2576 C.ar    
  25 C25           -0.4322    10.6714     1.9163 C.ar    
  26 C26            0.2890    11.2331     0.8793 C.ar    
  27 C27            1.2071    10.4707     0.1827 C.ar    
  28 C28            1.4093     9.1446     0.5269 C.ar    
  29 F29            2.3110     8.4004    -0.1500 F       
  30 Cl30          -1.1430     8.6404     3.5592 Cl      
  31 H31            0.8126     1.3277    -2.5110 H       
  32 H32            5.5222    -2.3087    -1.0528 H       
  33 H33            5.0727    -1.4431    -2.5417 H       
  34 H34            5.9868     0.6588    -1.5956 H       
  35 H35            6.4362    -0.2068    -0.1067 H       
  36 H36            7.2311    -0.6129    -1.6467 H       
  37 H37            4.6364    -1.3469     1.0972 H       
  38 H38            3.0983    -0.4551     1.0119 H       
  39 H39            3.5148    -3.3673     0.1979 H       
  40 H40            2.7250    -2.8101     1.6925 H       
  41 H41            1.9768    -2.4755     0.1125 H       
  42 H42           -2.2264     0.9615    -1.4454 H       
  43 H43           -3.1062     2.4270     0.3509 H       
  44 H44           -2.3400     0.9717     1.0316 H       
  45 H45           -1.6434     3.0052     2.2679 H       
  46 H46           -0.2585     2.2570     1.4368 H       
  47 H47           -1.8973     4.6131     0.3974 H       
  48 H48           -0.1563     4.7049    -1.3659 H       
  49 H49            0.6099     3.2496    -0.6852 H       
  50 H50           -0.8529     2.6715    -2.6022 H       
  51 H51           -2.2377     3.4196    -1.7711 H       
  52 H52            0.7061     7.0021     2.9974 H       
  53 H53            1.9252     6.8517     1.7092 H       
  54 H54            0.5815     4.5269     1.9388 H       
  55 H55           -1.1495    11.2681     2.4601 H       
  56 H56            0.1346    12.2684     0.6132 H       
  57 H57            1.7702    10.9102    -0.6274 H       
@<TRIPOS>BOND
   1    1    2 1
   2    1    5 1
   3    1   13 1
   4    2    3 2
   5    3    4 1
   6    4    5 2
   7    4    6 1
   8    5   31 1
   9    6    7 2
  10    6    8 am
  11    8    9 1
  12    8   11 1
  13    9   10 1
  14    9   32 1
  15    9   33 1
  16   10   34 1
  17   10   35 1
  18   10   36 1
  19   11   12 1
  20   11   37 1
  21   11   38 1
  22   12   39 1
  23   12   40 1
  24   12   41 1
  25   13   14 1
  26   13   18 1
  27   13   42 1
  28   14   15 1
  29   14   43 1
  30   14   44 1
  31   15   16 1
  32   15   45 1
  33   15   46 1
  34   16   17 1
  35   16   22 1
  36   16   47 1
  37   17   18 1
  38   17   48 1
  39   17   49 1
  40   18   50 1
  41   18   51 1
  42   19   20 1
  43   19   21 2
  44   19   22 am
  45   20   23 1
  46   20   52 1
  47   20   53 1
  48   22   54 1
  49   23   24 ar
  50   23   28 ar
  51   24   25 ar
  52   24   30 1
  53   25   26 ar
  54   25   55 1
  55   26   27 ar
  56   26   56 1
  57   27   28 ar
  58   27   57 1
  59   28   29 1

#	End of record

