#	Name: ASD01917999
#	Creating user name:	WinNT
#	Creation time:	15. 06. 2019 20:10

#	Modifying user name:	WinNT
#	Modification time:	15. 06. 2019 20:10

#	Program:	/corina/corina34_cracker 3.40 0067  02.08.2006

@<TRIPOS>MOLECULE
ASD01917999
  37   40    0    0    0
SMALL
NO_CHARGES


@<TRIPOS>ATOM
   1 N1             4.8200    -0.4117    -2.1418 N.ar    
   2 C2             5.2872     0.2863    -3.1581 C.ar    
   3 C3             5.1752     1.6654    -3.1836 C.ar    
   4 C4             4.5623     2.3140    -2.1227 C.ar    
   5 C5             4.0810     1.5454    -1.0672 C.ar    
   6 C6             4.2308     0.1669    -1.1141 C.ar    
   7 O7             3.4733     2.1368    -0.0053 O.3     
   8 C8             3.4546     3.4960     0.0443 C.2     
   9 N9             2.2051     5.5107    -0.0217 N.pl3   
  10 C10            2.2729     4.1508    -0.0653 C.2     
  11 C11            4.6572     4.1965     0.2135 C.2     
  12 C12            4.6348     5.5844     0.2637 C.2     
  13 C13            3.3434     6.2622     0.1365 C.2     
  14 C14            5.8773     6.3538     0.4408 C.2     
  15 N15            5.8354     7.7001     0.4872 N.am    
  16 C16            6.9947     8.4246     0.7601 C.ar    
  17 N17            8.1528     7.7924     0.8655 N.ar    
  18 C18            6.9238     9.8043     0.9133 C.ar    
  19 C19            8.0816    10.5124     1.1841 C.ar    
  20 C20            9.2768     9.8116     1.2928 C.ar    
  21 C21            9.2736     8.4389     1.1228 C.ar    
  22 O22            6.9417     5.7745     0.5453 O.2     
  23 C23            1.1811     6.4047    -0.1044 C.2     
  24 N24            1.6969     7.6022    -0.0076 N.2     
  25 N25            2.9732     7.5273     0.1408 N.2     
  26 Cl26           5.7952     2.5724    -4.5278 Cl      
  27 F27           10.4299    10.4646     1.5558 F       
  28 H28            5.7639    -0.2250    -3.9813 H       
  29 H29            4.4611     3.3892    -2.1153 H       
  30 H30            3.8608    -0.4386    -0.3000 H       
  31 H31            1.3639     3.5811    -0.1903 H       
  32 H32            5.5915     3.6624     0.3043 H       
  33 H33            4.9985     8.1650     0.3306 H       
  34 H34            5.9777    10.3171     0.8219 H       
  35 H35            8.0570    11.5850     1.3077 H       
  36 H36           10.2001     7.8895     1.2021 H       
  37 H37            0.1351     6.1680    -0.2324 H       
@<TRIPOS>BOND
   1    1    2 ar
   2    1    6 ar
   3    2    3 ar
   4    2   28 1
   5    3    4 ar
   6    3   26 1
   7    4    5 ar
   8    4   29 1
   9    5    6 ar
  10    5    7 1
  11    6   30 1
  12    7    8 1
  13    8   11 1
  14    8   10 2
  15    9   10 1
  16    9   23 1
  17    9   13 1
  18   10   31 1
  19   11   12 2
  20   11   32 1
  21   12   13 1
  22   12   14 1
  23   13   25 2
  24   14   15 am
  25   14   22 2
  26   15   16 1
  27   15   33 1
  28   16   18 ar
  29   16   17 ar
  30   17   21 ar
  31   18   19 ar
  32   18   34 1
  33   19   20 ar
  34   19   35 1
  35   20   21 ar
  36   20   27 1
  37   21   36 1
  38   23   24 2
  39   23   37 1
  40   24   25 1

#	End of record

