#	Name: ASD03930001
#	Creating user name:	WinNT
#	Creation time:	15. 06. 2019 20:47

#	Modifying user name:	WinNT
#	Modification time:	15. 06. 2019 20:47

#	Program:	/corina/corina34_cracker 3.40 0067  02.08.2006

@<TRIPOS>MOLECULE
ASD03930001
  27   29    0    0    0
SMALL
NO_CHARGES


@<TRIPOS>ATOM
   1 S1            -0.0226     1.8176     0.0120 S.o2    
   2 C2             0.0021    -0.0041     0.0020 C.3     
   3 N3             0.9502    -0.4135    -1.0448 N.pl3   
   4 C4             2.2652     0.0450    -1.0218 C.ar    
   5 C5             2.6287     1.3103    -0.5187 C.ar    
   6 C6             1.6964     2.2255    -0.0022 C.ar    
   7 C7             3.2451    -0.7938    -1.5218 C.ar    
   8 C8             4.5809    -0.4119    -1.5331 C.ar    
   9 C9             4.9620     0.8004    -1.0481 C.ar    
  10 C10            3.9996     1.6830    -0.5278 C.ar    
  11 C11            4.3871     2.9324    -0.0134 C.ar    
  12 C12            3.4507     3.7828     0.4861 C.ar    
  13 C13            2.1038     3.4264     0.4881 C.ar    
  14 O14           -0.5207     2.3225    -1.2193 O.2     
  15 O15           -0.4971     2.3092     1.2580 O.2     
  16 C16            0.4675    -0.5276     1.3622 C.3     
  17 H17           -0.9922    -0.3885    -0.2254 H       
  18 H18            0.6584    -1.0064    -1.7549 H       
  19 H19            2.9669    -1.7623    -1.9105 H       
  20 H20            5.3253    -1.0855    -1.9313 H       
  21 H21            6.0037     1.0850    -1.0630 H       
  22 H22            5.4289     3.2169    -0.0144 H       
  23 H23            3.7531     4.7404     0.8835 H       
  24 H24            1.3723     4.1143     0.8857 H       
  25 H25           -0.2160    -0.1822     2.1378 H       
  26 H26            0.4793    -1.6175     1.3474 H       
  27 H27            1.4709    -0.1562     1.5705 H       
@<TRIPOS>BOND
   1    1    2 1
   2    1    6 1
   3    1   14 2
   4    1   15 2
   5    2    3 1
   6    2   16 1
   7    2   17 1
   8    3    4 1
   9    3   18 1
  10    4    5 ar
  11    4    7 ar
  12    5    6 ar
  13    5   10 ar
  14    6   13 ar
  15    7    8 ar
  16    7   19 1
  17    8    9 ar
  18    8   20 1
  19    9   10 ar
  20    9   21 1
  21   10   11 ar
  22   11   12 ar
  23   11   22 1
  24   12   13 ar
  25   12   23 1
  26   13   24 1
  27   16   25 1
  28   16   26 1
  29   16   27 1

#	End of record

