#	Name: ASD01028750
#	Creating user name:	WinNT
#	Creation time:	15. 06. 2019 18:58

#	Modifying user name:	WinNT
#	Modification time:	15. 06. 2019 18:58

#	Program:	/corina/corina34_cracker 3.40 0067  02.08.2006

@<TRIPOS>MOLECULE
ASD01028750
  14   15    0    0    0
SMALL
NO_CHARGES


@<TRIPOS>ATOM
   1 C1            -0.0170     1.4017     0.0097 C.ar    
   2 C2             0.0021    -0.0041     0.0020 C.ar    
   3 C3             1.2352    -0.6651    -0.0133 C.ar    
   4 C4             2.3867     0.1020    -0.0202 C.ar    
   5 C5             2.2869     1.4836    -0.0118 C.ar    
   6 N6             1.1158     2.0865     0.0026 N.ar    
   7 C7            -2.0792     0.6114     0.0338 C.2     
   8 N8            -1.3477     1.7595     0.0299 N.pl3   
   9 N9            -1.2888    -0.4217     0.0121 N.2     
  10 Cl10           1.3181    -2.3991    -0.0228 Cl      
  11 H11            3.3565    -0.3731    -0.0316 H       
  12 H12            3.1880     2.0788    -0.0172 H       
  13 H13           -3.1581     0.5649     0.0487 H       
  14 H14           -1.6988     2.6637     0.0395 H       
@<TRIPOS>BOND
   1    1    2 ar
   2    1    6 ar
   3    1    8 1
   4    2    3 ar
   5    2    9 1
   6    3    4 ar
   7    3   10 1
   8    4    5 ar
   9    4   11 1
  10    5    6 ar
  11    5   12 1
  12    7    8 1
  13    7    9 2
  14    7   13 1
  15    8   14 1

#	End of record

