#	Name: ASD00071026
#	Creating user name:	WinNT
#	Creation time:	15. 06. 2019 18:30

#	Modifying user name:	WinNT
#	Modification time:	15. 06. 2019 18:30

#	Program:	/corina/corina34_cracker 3.40 0067  02.08.2006

@<TRIPOS>MOLECULE
ASD00071026
  36   38    0    0    0
SMALL
NO_CHARGES


@<TRIPOS>ATOM
   1 N1             2.6314     1.0876    -0.0582 N.ar    
   2 C2             2.4063    -0.1917     0.1582 C.ar    
   3 C3             1.1045    -0.7126     0.1899 C.ar    
   4 C4             0.0385     0.1124    -0.0062 C.ar    
   5 C5             0.2863     1.4813    -0.2374 C.ar    
   6 C6            -0.7654     2.3860    -0.4465 C.ar    
   7 C7            -0.4880     3.7035    -0.6667 C.ar    
   8 C8             0.8288     4.1622    -0.6866 C.ar    
   9 C9             1.8714     3.3097    -0.4872 C.ar    
  10 C10            1.6240     1.9459    -0.2574 C.ar    
  11 N11            3.4820    -1.0443     0.3591 N.pl3   
  12 C12            0.8855    -2.1825     0.4399 C.3     
  13 C13            0.8591    -2.4411     1.9243 C.ar    
  14 C14           -0.3026    -2.2137     2.6482 C.ar    
  15 C15           -0.3237    -2.4527     4.0144 C.ar    
  16 C16            0.8115    -2.9163     4.6510 C.ar    
  17 C17            1.9679    -3.1416     3.9276 C.ar    
  18 C18            1.9896    -2.9100     2.5645 C.ar    
  19 O19           -1.4178    -1.7573     2.0198 O.3     
  20 C20           -2.5772    -1.5458     2.8279 C.3     
  21 F21           -1.5011     4.5742    -0.8684 F       
  22 H22           -0.9706    -0.2720     0.0146 H       
  23 H23           -1.7889     2.0414    -0.4335 H       
  24 H24            1.0245     5.2095    -0.8632 H       
  25 H25            2.8856     3.6806    -0.5060 H       
  26 H26            4.3785    -0.6830     0.4413 H       
  27 H27            3.3378    -2.0017     0.4175 H       
  28 H28           -0.0642    -2.4881     0.0009 H       
  29 H29            1.6959    -2.7529    -0.0139 H       
  30 H30           -1.2266    -2.2762     4.5801 H       
  31 H31            0.7957    -3.1025     5.7147 H       
  32 H32            2.8544    -3.5033     4.4272 H       
  33 H33            2.8928    -3.0913     2.0007 H       
  34 H34           -2.8693    -2.4853     3.2972 H       
  35 H35           -2.3532    -0.8087     3.5990 H       
  36 H36           -3.3936    -1.1822     2.2039 H       
@<TRIPOS>BOND
   1    1    2 ar
   2    1   10 ar
   3    2    3 ar
   4    2   11 1
   5    3    4 ar
   6    3   12 1
   7    4    5 ar
   8    4   22 1
   9    5    6 ar
  10    5   10 ar
  11    6    7 ar
  12    6   23 1
  13    7    8 ar
  14    7   21 1
  15    8    9 ar
  16    8   24 1
  17    9   10 ar
  18    9   25 1
  19   11   26 1
  20   11   27 1
  21   12   13 1
  22   12   28 1
  23   12   29 1
  24   13   14 ar
  25   13   18 ar
  26   14   15 ar
  27   14   19 1
  28   15   16 ar
  29   15   30 1
  30   16   17 ar
  31   16   31 1
  32   17   18 ar
  33   17   32 1
  34   18   33 1
  35   19   20 1
  36   20   34 1
  37   20   35 1
  38   20   36 1

#	End of record

