#	Name: ASD00844808
#	Creating user name:	WinNT
#	Creation time:	15. 06. 2019 18:51

#	Modifying user name:	WinNT
#	Modification time:	15. 06. 2019 18:51

#	Program:	/corina/corina34_cracker 3.40 0067  02.08.2006

@<TRIPOS>MOLECULE
ASD00844808
  85   90    0    0    0
SMALL
NO_CHARGES


@<TRIPOS>ATOM
   1 F1             5.6887    -2.1731    -1.9725 F       
   2 C2             0.7229     1.2448    -0.3978 C.ar    
   3 C3             0.9711    -0.0938    -0.6632 C.ar    
   4 C4             0.8518    -1.0335     0.3507 C.ar    
   5 C5             0.4862    -0.6340     1.6214 C.ar    
   6 C6             0.2388     0.7012     1.8833 C.ar    
   7 C7             0.3575     1.6393     0.8749 C.ar    
   8 C8             1.1203    -2.4887     0.0657 C.3     
   9 C9             0.7964    -3.3351     1.2784 C.2     
  10 C10            0.3096    -2.9548    -1.1452 C.3     
  11 C11           -1.1512    -2.6660    -0.9131 C.2     
  12 N12           -2.0710    -3.0859    -1.8042 N.am    
  13 O13           -1.4990    -2.0557     0.0756 O.2     
  14 C14           -3.4844    -2.7144    -1.6525 C.3     
  15 C15           -4.3343    -3.9888    -1.6752 C.3     
  16 C16           -4.0256    -4.7804    -2.9481 C.3     
  17 C17           -2.5494    -5.1842    -2.9543 C.3     
  18 C18           -1.6784    -3.9187    -2.9492 C.3     
  19 N19           -4.8630    -5.9866    -2.9894 N.3     
  20 C20           -4.6803    -6.7115    -4.2546 C.3     
  21 C21           -5.5068    -7.9994    -4.2256 C.3     
  22 N22           -6.9220    -7.6655    -4.0128 N.3     
  23 C23           -7.1047    -6.9406    -2.7476 C.3     
  24 C24           -6.2783    -5.6527    -2.7767 C.3     
  25 H25           -7.2892    -7.1359    -4.7892 H       
  26 O26           -0.2881    -3.4473     1.8097 O.2     
  27 N27            1.9359    -3.9394     1.6550 N.am    
  28 C28            2.5966    -2.7202    -0.1609 C.ar    
  29 C29            3.0112    -3.5999     0.8313 C.ar    
  30 C30            3.4855    -2.2425    -1.0972 C.ar    
  31 C31            4.8127    -2.6397    -1.0560 C.ar    
  32 C32            5.2380    -3.5167    -0.0710 C.ar    
  33 C33            4.3463    -3.9958     0.8681 C.ar    
  34 Cl34           6.8999    -4.0155    -0.0175 Cl      
  35 C35            1.7303    -6.5941     2.3512 C.ar    
  36 C36            2.7719    -7.3801     1.8942 C.ar    
  37 C37            0.4374    -7.0842     2.3462 C.ar    
  38 C38            0.1834    -8.3611     1.8842 C.ar    
  39 C39            1.2268    -9.1518     1.4251 C.ar    
  40 C40            2.5231    -8.6575     1.4308 C.ar    
  41 O41            0.9795   -10.4084     0.9706 O.3     
  42 H42            3.7809    -6.9950     1.8992 H       
  43 C43            2.1019   -11.1654     0.5132 C.3     
  44 S44            2.0520    -4.9677     2.9479 S.o2    
  45 O45            3.4139    -4.9509     3.3529 O.2     
  46 O46            0.9780    -4.6401     3.8188 O.2     
  47 O47            1.3302    -0.4844    -1.9143 O.3     
  48 C48            1.3555     0.5239    -2.9266 C.3     
  49 C49            1.8633    -0.0813    -4.2368 C.3     
  50 F50            3.1176    -0.6641    -4.0260 F       
  51 F51            0.9639    -1.0574    -4.6791 F       
  52 H52            0.8194     1.9787    -1.1843 H       
  53 H53            0.3932    -1.3650     2.4109 H       
  54 H54           -0.0476     1.0114     2.8774 H       
  55 H55            0.1637     2.6814     1.0820 H       
  56 H56            0.6480    -2.4240    -2.0351 H       
  57 H57            0.4502    -4.0265    -1.2859 H       
  58 H58           -3.6265    -2.1973    -0.7035 H       
  59 H59           -3.7811    -2.0626    -2.4742 H       
  60 H60           -4.1000    -4.5979    -0.8021 H       
  61 H61           -5.3909    -3.7217    -1.6602 H       
  62 H62           -4.2366    -4.1620    -3.8205 H       
  63 H63           -2.3320    -5.7820    -2.0692 H       
  64 H64           -2.3357    -5.7679    -3.8497 H       
  65 H65           -1.8292    -3.3676    -3.8775 H       
  66 H66           -0.6291    -4.1977    -2.8538 H       
  67 H67           -5.0113    -6.0856    -5.0834 H       
  68 H68           -3.6265    -6.9585    -4.3833 H       
  69 H69           -5.3956    -8.5243    -5.1744 H       
  70 H70           -5.1576    -8.6373    -3.4136 H       
  71 H71           -8.1585    -6.6936    -2.6189 H       
  72 H72           -6.7737    -7.5665    -1.9189 H       
  73 H73           -6.3894    -5.1278    -1.8279 H       
  74 H74           -6.6274    -5.0148    -3.5886 H       
  75 H75            3.1491    -1.5595    -1.8632 H       
  76 H76            4.6847    -4.6791     1.6329 H       
  77 H77           -0.3744    -6.4684     2.7040 H       
  78 H78           -0.8266    -8.7436     1.8808 H       
  79 H79            3.3371    -9.2712     1.0742 H       
  80 H80            2.5792   -10.6428    -0.3158 H       
  81 H81            2.8165   -11.2839     1.3277 H       
  82 H82            1.7661   -12.1470     0.1787 H       
  83 H83            0.3493     0.9164    -3.0736 H       
  84 H84            2.0192     1.3317    -2.6182 H       
  85 H85            1.9486     0.7020    -4.9899 H       
@<TRIPOS>BOND
   1    1   31 1
   2    2    3 ar
   3    2    7 ar
   4    2   52 1
   5    3    4 ar
   6    3   47 1
   7    4    5 ar
   8    4    8 1
   9    5    6 ar
  10    5   53 1
  11    6    7 ar
  12    6   54 1
  13    7   55 1
  14    8    9 1
  15    8   10 1
  16    8   28 1
  17    9   26 2
  18    9   27 am
  19   10   11 1
  20   10   56 1
  21   10   57 1
  22   11   12 am
  23   11   13 2
  24   12   14 1
  25   12   18 1
  26   14   15 1
  27   14   58 1
  28   14   59 1
  29   15   16 1
  30   15   60 1
  31   15   61 1
  32   16   17 1
  33   16   19 1
  34   16   62 1
  35   17   18 1
  36   17   63 1
  37   17   64 1
  38   18   65 1
  39   18   66 1
  40   19   20 1
  41   19   24 1
  42   20   21 1
  43   20   67 1
  44   20   68 1
  45   21   22 1
  46   21   69 1
  47   21   70 1
  48   22   23 1
  49   22   25 1
  50   23   24 1
  51   23   71 1
  52   23   72 1
  53   24   73 1
  54   24   74 1
  55   27   44 am
  56   27   29 1
  57   28   29 ar
  58   28   30 ar
  59   29   33 ar
  60   30   31 ar
  61   30   75 1
  62   31   32 ar
  63   32   33 ar
  64   32   34 1
  65   33   76 1
  66   35   36 ar
  67   35   37 ar
  68   35   44 1
  69   36   42 1
  70   36   40 ar
  71   37   38 ar
  72   37   77 1
  73   38   39 ar
  74   38   78 1
  75   39   40 ar
  76   39   41 1
  77   40   79 1
  78   41   43 1
  79   43   80 1
  80   43   81 1
  81   43   82 1
  82   44   45 2
  83   44   46 2
  84   47   48 1
  85   48   49 1
  86   48   83 1
  87   48   84 1
  88   49   50 1
  89   49   51 1
  90   49   85 1

#	End of record

