#	Name: ASD01870125
#	Creating user name:	WinNT
#	Creation time:	15. 06. 2019 19:38

#	Modifying user name:	WinNT
#	Modification time:	15. 06. 2019 19:38

#	Program:	/corina/corina34_cracker 3.40 0067  02.08.2006

@<TRIPOS>MOLECULE
ASD01870125
  33   34    0    0    0
SMALL
NO_CHARGES


@<TRIPOS>ATOM
   1 C1             0.1483     1.1052     1.1684 C.ar    
   2 C2             0.0802    -0.1323     0.5602 C.ar    
   3 C3             1.2001    -0.6765    -0.0497 C.ar    
   4 C4             2.3938     0.0138    -0.0540 C.ar    
   5 C5             2.4756     1.2671     0.5583 C.ar    
   6 C6             1.3409     1.8132     1.1731 C.ar    
   7 O7             1.4086     3.0296     1.7702 O.3     
   8 Cl8            1.0992    -2.2336    -0.8105 Cl      
   9 C9             3.7494     2.0109     0.5579 C.2     
  10 O10            3.8169     3.1014     1.0917 O.2     
  11 N11            4.8386     1.4819    -0.0340 N.am    
  12 C12            6.0146     2.2322    -0.1330 C.ar    
  13 C13            7.2503     1.6052    -0.0382 C.ar    
  14 C14            5.9494     3.6052    -0.3320 C.ar    
  15 C15            7.1127     4.3433    -0.4297 C.ar    
  16 C16            8.3413     3.7166    -0.3296 C.ar    
  17 C17            8.4097     2.3490    -0.1367 C.ar    
  18 C18            7.0430     5.8330    -0.6461 C.3     
  19 C19            9.7509     1.6704    -0.0278 C.3     
  20 H20           -0.7295     1.5245     1.6375 H       
  21 H21           -0.8508    -0.6797     0.5597 H       
  22 H22            3.2641    -0.4138    -0.5295 H       
  23 H23            1.2017     3.7687     1.1819 H       
  24 H24            4.8067     0.5807    -0.3915 H       
  25 H25            7.3044     0.5372     0.1128 H       
  26 H26            4.9902     4.0952    -0.4106 H       
  27 H27            9.2495     4.2960    -0.4067 H       
  28 H28            7.0181     6.3396     0.3187 H       
  29 H29            7.9192     6.1603    -1.2058 H       
  30 H30            6.1412     6.0767    -1.2078 H       
  31 H31           10.0639     1.6498     1.0161 H       
  32 H32            9.6736     0.6504    -0.4041 H       
  33 H33           10.4852     2.2202    -0.6165 H       
@<TRIPOS>BOND
   1    1    2 ar
   2    1    6 ar
   3    1   20 1
   4    2    3 ar
   5    2   21 1
   6    3    4 ar
   7    3    8 1
   8    4    5 ar
   9    4   22 1
  10    5    6 ar
  11    5    9 1
  12    6    7 1
  13    7   23 1
  14    9   10 2
  15    9   11 am
  16   11   12 1
  17   11   24 1
  18   12   13 ar
  19   12   14 ar
  20   13   17 ar
  21   13   25 1
  22   14   15 ar
  23   14   26 1
  24   15   16 ar
  25   15   18 1
  26   16   17 ar
  27   16   27 1
  28   17   19 1
  29   18   28 1
  30   18   29 1
  31   18   30 1
  32   19   31 1
  33   19   32 1
  34   19   33 1

#	End of record

