#	Name: ASD02030463
#	Creating user name:	WinNT
#	Creation time:	15. 06. 2019 20:15

#	Modifying user name:	WinNT
#	Modification time:	15. 06. 2019 20:15

#	Program:	/corina/corina34_cracker 3.40 0067  02.08.2006

@<TRIPOS>MOLECULE
ASD02030463
  37   38    0    0    0
SMALL
NO_CHARGES


@<TRIPOS>ATOM
   1 C1            -0.0144     1.2110     0.0087 C.2     
   2 O2             0.0701    -0.0010    -0.0185 O.2     
   3 C3             1.2115     2.0406    -0.0526 C.ar    
   4 C4             2.4602     1.4333     0.0420 C.ar    
   5 C5             3.6013     2.2202    -0.0167 C.ar    
   6 C6             3.4548     3.5878    -0.1681 C.ar    
   7 C7             2.1756     4.1306    -0.2564 C.ar    
   8 N8             1.1087     3.3562    -0.2029 N.ar    
   9 O9             2.0246     5.4706    -0.4049 O.3     
  10 C10            0.6874     5.9674    -0.4896 C.3     
  11 N11           -1.2237     1.8006     0.0890 N.am    
  12 C12           -2.4583     1.0083    -0.0170 C.3     
  13 C13           -3.3612     1.3524     1.1724 C.3     
  14 N14           -3.5593     2.8070     1.2279 N.3     
  15 C15           -2.2905     3.5090     1.4625 C.3     
  16 C16           -1.3438     3.2524     0.2911 C.3     
  17 C17           -4.7145     0.6589     1.0036 C.3     
  18 C18           -2.7015     0.8772     2.4685 C.3     
  19 H19            2.5399     0.3628     0.1600 H       
  20 H20            4.5827     1.7750     0.0545 H       
  21 H21            4.3235     4.2276    -0.2168 H       
  22 H22            0.7090     7.0509    -0.6063 H       
  23 H23            0.1871     5.5194    -1.3481 H       
  24 H24            0.1461     5.7108     0.4210 H       
  25 H25           -2.9706     1.2514    -0.9479 H       
  26 H26           -2.2147    -0.0539     0.0036 H       
  27 H27           -4.0089     3.1429     0.3894 H       
  28 H28           -2.4781     4.5790     1.5526 H       
  29 H29           -1.8354     3.1405     2.3818 H       
  30 H30           -0.3636     3.6732     0.5152 H       
  31 H31           -1.7468     3.7154    -0.6096 H       
  32 H32           -4.5668    -0.4202     0.9601 H       
  33 H33           -5.3564     0.9039     1.8498 H       
  34 H34           -5.1844     0.9988     0.0807 H       
  35 H35           -1.7380     1.3726     2.5886 H       
  36 H36           -3.3439     1.1222     3.3143 H       
  37 H37           -2.5524    -0.2017     2.4259 H       
@<TRIPOS>BOND
   1    1    2 2
   2    1    3 1
   3    1   11 am
   4    3    4 ar
   5    3    8 ar
   6    4    5 ar
   7    4   19 1
   8    5    6 ar
   9    5   20 1
  10    6    7 ar
  11    6   21 1
  12    7    8 ar
  13    7    9 1
  14    9   10 1
  15   10   22 1
  16   10   23 1
  17   10   24 1
  18   11   12 1
  19   11   16 1
  20   12   13 1
  21   12   25 1
  22   12   26 1
  23   13   14 1
  24   13   17 1
  25   13   18 1
  26   14   15 1
  27   14   27 1
  28   15   16 1
  29   15   28 1
  30   15   29 1
  31   16   30 1
  32   16   31 1
  33   17   32 1
  34   17   33 1
  35   17   34 1
  36   18   35 1
  37   18   36 1
  38   18   37 1

#	End of record

