#	Name: ASD01882160
#	Creating user name:	WinNT
#	Creation time:	15. 06. 2019 19:44

#	Modifying user name:	WinNT
#	Modification time:	15. 06. 2019 19:44

#	Program:	/corina/corina34_cracker 3.40 0067  02.08.2006

@<TRIPOS>MOLECULE
ASD01882160
  46   49    0    0    0
SMALL
NO_CHARGES


@<TRIPOS>ATOM
   1 C1            -0.2448     1.0574    -0.0528 C.2     
   2 N2            -0.4931    -0.2279     0.1603 N.2     
   3 C3             0.4730    -1.1482     0.0741 C.2     
   4 C4             1.7940    -0.7493    -0.2518 C.2     
   5 C5             2.0342     0.5612    -0.4664 C.2     
   6 N6             1.0096     1.4601    -0.3652 N.pl3   
   7 O7            -1.1228     2.0829    -0.0038 O.3     
   8 C8             1.0164     2.9213    -0.5499 C.3     
   9 C9            -0.4447     3.3334    -0.2999 C.3     
  10 O10            0.2190    -2.3260     0.2752 O.2     
  11 C11           -1.0367     3.9795    -1.5541 C.3     
  12 O12           -2.3836     4.3794    -1.2934 O.3     
  13 C13           -3.0586     4.9746    -2.3117 C.ar    
  14 C14           -4.3700     5.3881    -2.1281 C.ar    
  15 C15           -5.0540     5.9929    -3.1648 C.ar    
  16 C16           -4.4326     6.1861    -4.3848 C.ar    
  17 C17           -3.1258     5.7745    -4.5705 C.ar    
  18 C18           -2.4354     5.1749    -3.5350 C.ar    
  19 C19           -5.1811     6.8461    -5.5140 C.3     
  20 C20           -6.5165     6.1306    -5.7277 C.3     
  21 C21           -5.4349     8.2915    -5.1714 C.ar    
  22 C22           -4.7988     9.2922    -5.8820 C.ar    
  23 C23           -5.0316    10.6181    -5.5678 C.ar    
  24 C24           -5.9007    10.9433    -4.5432 C.ar    
  25 C25           -6.5374     9.9426    -3.8332 C.ar    
  26 C26           -6.3080     8.6168    -4.1503 C.ar    
  27 H27            2.5889    -1.4767    -0.3262 H       
  28 H28            3.0296     0.8975    -0.7161 H       
  29 H29            1.6786     3.3951     0.1747 H       
  30 H30            1.3150     3.1767    -1.5665 H       
  31 H31           -0.5119     4.0140     0.5488 H       
  32 H32           -0.4446     4.8531    -1.8268 H       
  33 H33           -1.0232     3.2611    -2.3738 H       
  34 H34           -4.8560     5.2370    -1.1755 H       
  35 H35           -6.0751     6.3146    -3.0224 H       
  36 H36           -2.6428     5.9260    -5.5245 H       
  37 H37           -1.4131     4.8579    -3.6790 H       
  38 H38           -4.5876     6.7877    -6.4264 H       
  39 H39           -7.1100     6.1889    -4.8153 H       
  40 H40           -7.0579     6.6079    -6.5445 H       
  41 H41           -6.3329     5.0851    -5.9755 H       
  42 H42           -4.1198     9.0382    -6.6825 H       
  43 H43           -4.5341    11.3999    -6.1225 H       
  44 H44           -6.0820    11.9792    -4.2972 H       
  45 H45           -7.2162    10.1967    -3.0325 H       
  46 H46           -6.8083     7.8351    -3.5980 H       
@<TRIPOS>BOND
   1    1    2 2
   2    1    6 1
   3    1    7 1
   4    2    3 1
   5    3    4 1
   6    3   10 2
   7    4    5 2
   8    4   27 1
   9    5    6 1
  10    5   28 1
  11    6    8 1
  12    7    9 1
  13    8    9 1
  14    8   29 1
  15    8   30 1
  16    9   11 1
  17    9   31 1
  18   11   12 1
  19   11   32 1
  20   11   33 1
  21   12   13 1
  22   13   14 ar
  23   13   18 ar
  24   14   15 ar
  25   14   34 1
  26   15   16 ar
  27   15   35 1
  28   16   17 ar
  29   16   19 1
  30   17   18 ar
  31   17   36 1
  32   18   37 1
  33   19   20 1
  34   19   21 1
  35   19   38 1
  36   20   39 1
  37   20   40 1
  38   20   41 1
  39   21   22 ar
  40   21   26 ar
  41   22   23 ar
  42   22   42 1
  43   23   24 ar
  44   23   43 1
  45   24   25 ar
  46   24   44 1
  47   25   26 ar
  48   25   45 1
  49   26   46 1

#	End of record

