#	Name: ASD01840336
#	Creating user name:	WinNT
#	Creation time:	15. 06. 2019 19:37

#	Modifying user name:	WinNT
#	Modification time:	15. 06. 2019 19:37

#	Program:	/corina/corina34_cracker 3.40 0067  02.08.2006

@<TRIPOS>MOLECULE
ASD01840336
  46   50    0    0    0
SMALL
NO_CHARGES


@<TRIPOS>ATOM
   1 C1            -0.0184     1.5028     0.0103 C.3     
   2 C2             0.0021    -0.0041     0.0020 C.ar    
   3 N3             0.0056    -0.6576    -1.1459 N.ar    
   4 N4             0.0231    -1.9361    -1.2112 N.ar    
   5 C5             0.0392    -2.7075    -0.1202 C.ar    
   6 S6             0.0649    -4.4567     0.0333 S.3     
   7 C7             0.0728    -4.3937     1.7863 C.ar    
   8 C8             0.0928    -5.4306     2.7420 C.ar    
   9 N9             0.1103    -6.7571     2.3407 N.pl3   
  10 C10            0.1310    -7.8254     3.3429 C.3     
  11 C11            0.1472    -9.1637     2.6504 C.ar    
  12 C12           -1.0424    -9.7925     2.3336 C.ar    
  13 C13           -1.0275   -11.0201     1.6983 C.ar    
  14 C14            0.1770   -11.6188     1.3793 C.ar    
  15 C15            1.3666   -10.9896     1.6952 C.ar    
  16 C16            1.3517    -9.7599     2.3267 C.ar    
  17 C17            0.1932   -12.9576     0.6876 C.3     
  18 C18            1.3311   -13.1137    -0.3387 C.3     
  19 O19            1.5051   -14.4299     0.2234 O.3     
  20 C20            0.9132   -14.0611     1.4854 C.3     
  21 N21            0.0951    -5.1172     4.0301 N.ar    
  22 C22            0.0789    -3.8553     4.4184 C.ar    
  23 N23            0.0596    -2.8611     3.5651 N.ar    
  24 C24            0.0562    -3.0829     2.2347 C.ar    
  25 C25            0.0369    -2.1084     1.1377 C.ar    
  26 C26            0.0228    -0.6996     1.1934 C.ar    
  27 C27            0.0255     0.0248     2.5149 C.3     
  28 H28            1.0042     1.8801     0.0026 H       
  29 H29           -0.5455     1.8639    -0.8728 H       
  30 H30           -0.5286     1.8543     0.9071 H       
  31 H31            0.1088    -6.9781     1.3962 H       
  32 H32            1.0228    -7.7258     3.9618 H       
  33 H33           -0.7570    -7.7519     3.9707 H       
  34 H34           -1.9834    -9.3248     2.5829 H       
  35 H35           -1.9569   -11.5117     1.4515 H       
  36 H36            2.3076   -11.4574     1.4463 H       
  37 H37            2.2811    -9.2666     2.5701 H       
  38 H38           -0.7857   -13.2542     0.3109 H       
  39 H39            0.9929   -13.1179    -1.3749 H       
  40 H40            2.1750   -12.4455    -0.1666 H       
  41 H41            1.6294   -13.6823     2.2145 H       
  42 H42            0.2435   -14.8168     1.8959 H       
  43 H43            0.0813    -3.6351     5.4757 H       
  44 H44           -1.0014     0.1855     2.8432 H       
  45 H45            0.5545    -0.5738     3.2563 H       
  46 H46            0.5252     0.9868     2.4009 H       
@<TRIPOS>BOND
   1    1    2 1
   2    1   28 1
   3    1   29 1
   4    1   30 1
   5    2   26 ar
   6    2    3 ar
   7    3    4 ar
   8    4    5 ar
   9    5   25 ar
  10    5    6 1
  11    6    7 1
  12    7   24 ar
  13    7    8 ar
  14    8    9 1
  15    8   21 ar
  16    9   10 1
  17    9   31 1
  18   10   11 1
  19   10   32 1
  20   10   33 1
  21   11   16 ar
  22   11   12 ar
  23   12   13 ar
  24   12   34 1
  25   13   14 ar
  26   13   35 1
  27   14   15 ar
  28   14   17 1
  29   15   16 ar
  30   15   36 1
  31   16   37 1
  32   17   20 1
  33   17   18 1
  34   17   38 1
  35   18   19 1
  36   18   39 1
  37   18   40 1
  38   19   20 1
  39   20   41 1
  40   20   42 1
  41   21   22 ar
  42   22   23 ar
  43   22   43 1
  44   23   24 ar
  45   24   25 1
  46   25   26 ar
  47   26   27 1
  48   27   44 1
  49   27   45 1
  50   27   46 1

#	End of record

