#	Name: ASD01914967
#	Creating user name:	WinNT
#	Creation time:	15. 06. 2019 20:04

#	Modifying user name:	WinNT
#	Modification time:	15. 06. 2019 20:04

#	Program:	/corina/corina34_cracker 3.40 0067  02.08.2006

@<TRIPOS>MOLECULE
ASD01914967
  61   64    0    0    0
SMALL
NO_CHARGES


@<TRIPOS>ATOM
   1 C1            -0.0158     1.3120     0.0093 C.2     
   2 N2             0.0021    -0.0041     0.0020 N.2     
   3 C3             1.3183     1.7637    -0.0011 C.2     
   4 C4             2.1227     0.6785    -0.0146 C.2     
   5 N5             1.3391    -0.4213    -0.0130 N.pl3   
   6 C6            -1.2277     2.1688     0.0199 C.ar    
   7 C7            -1.1060     3.5534    -0.0787 C.ar    
   8 C8            -2.2361     4.3453    -0.0683 C.ar    
   9 C9            -3.4881     3.7669     0.0399 C.ar    
  10 C10           -3.6147     2.3932     0.1381 C.ar    
  11 C11           -2.4912     1.5913     0.1229 C.ar    
  12 C12            3.6295     0.6928    -0.0298 C.3     
  13 C13            1.8064    -1.8097    -0.0242 C.3     
  14 C14            1.9794    -2.2929     1.3927 C.2     
  15 N15            2.4043    -3.5500     1.6289 N.am    
  16 O16            1.7364    -1.5506     2.3205 O.2     
  17 C17            2.5836    -4.0528     3.0018 C.3     
  18 C18            1.6186    -5.2236     3.2055 C.3     
  19 C19            1.6682    -6.1529     2.0293 C.2     
  20 C20            2.1378    -5.8284     0.8482 C.2     
  21 C21            2.7013    -4.4762     0.5268 C.3     
  22 C22            4.1530     0.8157     1.4026 C.3     
  23 C23            1.1543    -7.5254     2.2133 C.ar    
  24 N24            1.1853    -8.3704     1.1901 N.ar    
  25 C25           -4.7186     4.6369     0.0513 C.3     
  26 C26            0.7342    -9.6053     1.3191 C.ar    
  27 C27            0.2221   -10.0153     2.5471 C.ar    
  28 C28            0.2056    -9.1020     3.5977 C.ar    
  29 N29            0.6782    -7.8844     3.3992 N.ar    
  30 O30           -0.2511   -11.2780     2.7162 O.3     
  31 C31           -0.7580   -11.6130     4.0096 C.3     
  32 C32           -4.9818     1.7704     0.2562 C.3     
  33 H33            1.6407     2.7944     0.0011 H       
  34 H34           -0.1290     4.0060    -0.1629 H       
  35 H35           -2.1429     5.4186    -0.1443 H       
  36 H36           -2.5911     0.5186     0.1996 H       
  37 H37            3.9972    -0.2327    -0.4729 H       
  38 H38            3.9789     1.5412    -0.6184 H       
  39 H39            1.0741    -2.4354    -0.5345 H       
  40 H40            2.7611    -1.8676    -0.5470 H       
  41 H41            3.6100    -4.3931     3.1386 H       
  42 H42            2.3587    -3.2611     3.7166 H       
  43 H43            1.8979    -5.7682     4.1074 H       
  44 H44            0.6048    -4.8396     3.3191 H       
  45 H45            2.1143    -6.5725     0.0659 H       
  46 H46            2.2549    -4.1054    -0.3959 H       
  47 H47            3.7819    -4.5513     0.4052 H       
  48 H48            3.8036    -0.0326     1.9911 H       
  49 H49            5.2428     0.8260     1.3915 H       
  50 H50            3.7853     1.7413     1.8456 H       
  51 H51           -5.0725     4.7791    -0.9698 H       
  52 H52           -5.4981     4.1561     0.6424 H       
  53 H53           -4.4752     5.6048     0.4896 H       
  54 H54            0.7618   -10.2879     0.4826 H       
  55 H55           -0.1849    -9.3864     4.5636 H       
  56 H56           -1.1028   -12.6471     4.0081 H       
  57 H57            0.0318   -11.4944     4.7513 H       
  58 H58           -1.5898   -10.9531     4.2559 H       
  59 H59           -5.3689     1.5523    -0.7392 H       
  60 H60           -4.9116     0.8459     0.8293 H       
  61 H61           -5.6538     2.4624     0.7638 H       
@<TRIPOS>BOND
   1    1    2 2
   2    1    3 1
   3    1    6 1
   4    2    5 1
   5    3    4 2
   6    3   33 1
   7    4    5 1
   8    4   12 1
   9    5   13 1
  10    6    7 ar
  11    6   11 ar
  12    7    8 ar
  13    7   34 1
  14    8    9 ar
  15    8   35 1
  16    9   10 ar
  17    9   25 1
  18   10   11 ar
  19   10   32 1
  20   11   36 1
  21   12   22 1
  22   12   37 1
  23   12   38 1
  24   13   14 1
  25   13   39 1
  26   13   40 1
  27   14   15 am
  28   14   16 2
  29   15   17 1
  30   15   21 1
  31   17   18 1
  32   17   41 1
  33   17   42 1
  34   18   19 1
  35   18   43 1
  36   18   44 1
  37   19   20 2
  38   19   23 1
  39   20   21 1
  40   20   45 1
  41   21   46 1
  42   21   47 1
  43   22   48 1
  44   22   49 1
  45   22   50 1
  46   23   24 ar
  47   23   29 ar
  48   24   26 ar
  49   25   51 1
  50   25   52 1
  51   25   53 1
  52   26   27 ar
  53   26   54 1
  54   27   28 ar
  55   27   30 1
  56   28   29 ar
  57   28   55 1
  58   30   31 1
  59   31   56 1
  60   31   57 1
  61   31   58 1
  62   32   59 1
  63   32   60 1
  64   32   61 1

#	End of record

