#	Name: ASD09116505
#	Creating user name:	WinNT
#	Creation time:	15. 06. 2019 21:21

#	Modifying user name:	WinNT
#	Modification time:	15. 06. 2019 21:21

#	Program:	/corina/corina34_cracker 3.40 0067  02.08.2006

@<TRIPOS>MOLECULE
ASD09116505
  93  100    0    0    0
SMALL
NO_CHARGES


@<TRIPOS>ATOM
   1 N1            -0.3221     2.8343     0.2256 N.2     
   2 N2            -1.0196     3.9604     0.6917 N.pl3   
   3 C3             0.9508     3.1499     0.2149 C.2     
   4 N4             1.0918     4.4084     0.6472 N.2     
   5 C5            -0.0885     4.9115     0.9390 C.2     
   6 N6            -0.3343     6.1857     1.4141 N.pl3   
   7 C7            -2.4001     4.0765     0.8649 C.ar    
   8 N8             1.9904     2.3088    -0.1827 N.pl3   
   9 C9             3.2969     2.7991    -0.2553 C.ar    
  10 C10            4.3741     1.9320    -0.1197 C.ar    
  11 C11            3.5210     4.1539    -0.4689 C.ar    
  12 C12            4.8178     4.6282    -0.5389 C.ar    
  13 C13            5.8786     3.7706    -0.3996 C.ar    
  14 C14            5.6650     2.4183    -0.1921 C.ar    
  15 N15           -2.8874     4.9470     1.7363 N.ar    
  16 N16           -4.1489     5.0861     1.9409 N.ar    
  17 C17           -5.0418     4.3601     1.2877 C.ar    
  18 C18           -4.6209     3.4303     0.3326 C.ar    
  19 C19           -3.2678     3.2784     0.1151 C.ar    
  20 C20           -6.4929     4.4798     1.5603 C.ar    
  21 C21           -7.2349     3.3193     1.7858 C.ar    
  22 C22           -6.5354     1.9878     1.8018 C.3     
  23 C23           -6.2120     1.5118     0.3882 C.3     
  24 C24           -5.6394     2.6525    -0.4489 C.3     
  25 C25           -7.1176     5.7217     1.5895 C.ar    
  26 C26           -8.4770     5.7979     1.8237 C.ar    
  27 C27           -9.2124     4.6441     2.0260 C.ar    
  28 C28           -8.5927     3.4065     2.0062 C.ar    
  29 C29            5.0593     6.1056    -0.7698 C.3     
  30 C30            5.6155     6.2907    -2.1838 C.3     
  31 C31            7.1208     6.1122    -2.2014 C.3     
  32 C32            7.5875     4.6966    -1.9255 C.3     
  33 C33            7.2969     4.2971    -0.4771 C.3     
  34 N34            7.6229     6.5197    -3.5204 N.3     
  35 C35            7.5014     7.9715    -3.7043 C.3     
  36 C36            6.9364     5.7892    -4.5935 C.3     
  37 C37            7.5822     6.1298    -5.9385 C.3     
  38 C38            7.4837     7.6388    -6.1788 C.3     
  39 C39            8.1641     8.3773    -5.0228 C.3     
  40 C40            8.1814     7.9938    -7.4934 C.3     
  41 N41            7.5097     7.3076    -8.6051 N.3     
  42 C42            8.0882     7.7045    -9.8951 C.3     
  43 C43            7.4666     6.8659   -11.0141 C.3     
  44 C44            5.9507     7.0820   -11.0253 C.3     
  45 C45            5.3795     6.7070    -9.6550 C.3     
  46 C46            6.0617     7.5502    -8.5753 C.3     
  47 H47            0.4026     6.7991     1.5609 H       
  48 H48           -1.2438     6.4667     1.6008 H       
  49 H49            1.8063     1.3837    -0.4088 H       
  50 H50            4.2021     0.8782     0.0426 H       
  51 H51            2.6876     4.8318    -0.5799 H       
  52 H52            6.5042     1.7472    -0.0834 H       
  53 H53           -2.8925     2.5634    -0.6021 H       
  54 H54           -5.6086     2.0787     2.3682 H       
  55 H55           -7.1780     1.2532     2.2871 H       
  56 H56           -5.4826     0.7034     0.4398 H       
  57 H57           -7.1228     1.1428    -0.0834 H       
  58 H58           -6.4483     3.3195    -0.7470 H       
  59 H59           -5.1682     2.2406    -1.3414 H       
  60 H60           -6.5430     6.6222     1.4302 H       
  61 H61           -8.9664     6.7603     1.8492 H       
  62 H62          -10.2763     4.7091     2.2002 H       
  63 H63           -9.1730     2.5094     2.1640 H       
  64 H64            4.1201     6.6500    -0.6715 H       
  65 H65            5.7797     6.4774    -0.0412 H       
  66 H66            5.1599     5.5555    -2.8470 H       
  67 H67            5.3694     7.2920    -2.5373 H       
  68 H68            7.5560     6.7721    -1.4509 H       
  69 H69            7.0694     4.0115    -2.5967 H       
  70 H70            8.6603     4.6313    -2.1068 H       
  71 H71            7.4003     5.1676     0.1707 H       
  72 H72            7.9939     3.5194    -0.1647 H       
  73 H73            6.4472     8.2476    -3.7277 H       
  74 H74            7.9929     8.4847    -2.8778 H       
  75 H75            7.0175     4.7173    -4.4127 H       
  76 H76            5.8848     6.0756    -4.6126 H       
  77 H77            8.6303     5.8311    -5.9249 H       
  78 H78            7.0623     5.5995    -6.7364 H       
  79 H79            6.4351     7.9317    -6.2312 H       
  80 H80            8.0600     9.4527    -5.1665 H       
  81 H81            9.2214     8.1139    -4.9948 H       
  82 H82            8.1346     9.0714    -7.6501 H       
  83 H83            9.2237     7.6782    -7.4483 H       
  84 H84            7.8836     8.7598   -10.0755 H       
  85 H85            9.1658     7.5420    -9.8752 H       
  86 H86            7.8848     7.1716   -11.9732 H       
  87 H87            7.6826     5.8116   -10.8417 H       
  88 H88            5.7336     8.1291   -11.2363 H       
  89 H89            5.4988     6.4535   -11.7927 H       
  90 H90            4.3067     6.8992    -9.6430 H       
  91 H91            5.5628     5.6502    -9.4612 H       
  92 H92            5.6675     7.2756    -7.5970 H       
  93 H93            5.8665     8.6063    -8.7620 H       
@<TRIPOS>BOND
   1    1    2 1
   2    1    3 2
   3    2    7 1
   4    2    5 1
   5    3    4 1
   6    3    8 1
   7    4    5 2
   8    5    6 1
   9    6   47 1
  10    6   48 1
  11    7   15 ar
  12    7   19 ar
  13    8    9 1
  14    8   49 1
  15    9   10 ar
  16    9   11 ar
  17   10   14 ar
  18   10   50 1
  19   11   12 ar
  20   11   51 1
  21   12   13 ar
  22   12   29 1
  23   13   14 ar
  24   13   33 1
  25   14   52 1
  26   15   16 ar
  27   16   17 ar
  28   17   18 ar
  29   17   20 1
  30   18   19 ar
  31   18   24 1
  32   19   53 1
  33   20   21 ar
  34   20   25 ar
  35   21   22 1
  36   21   28 ar
  37   22   23 1
  38   22   54 1
  39   22   55 1
  40   23   24 1
  41   23   56 1
  42   23   57 1
  43   24   58 1
  44   24   59 1
  45   25   26 ar
  46   25   60 1
  47   26   27 ar
  48   26   61 1
  49   27   28 ar
  50   27   62 1
  51   28   63 1
  52   29   30 1
  53   29   64 1
  54   29   65 1
  55   30   31 1
  56   30   66 1
  57   30   67 1
  58   31   32 1
  59   31   34 1
  60   31   68 1
  61   32   33 1
  62   32   69 1
  63   32   70 1
  64   33   71 1
  65   33   72 1
  66   34   35 1
  67   34   36 1
  68   35   39 1
  69   35   73 1
  70   35   74 1
  71   36   37 1
  72   36   75 1
  73   36   76 1
  74   37   38 1
  75   37   77 1
  76   37   78 1
  77   38   39 1
  78   38   40 1
  79   38   79 1
  80   39   80 1
  81   39   81 1
  82   40   41 1
  83   40   82 1
  84   40   83 1
  85   41   42 1
  86   41   46 1
  87   42   43 1
  88   42   84 1
  89   42   85 1
  90   43   44 1
  91   43   86 1
  92   43   87 1
  93   44   45 1
  94   44   88 1
  95   44   89 1
  96   45   46 1
  97   45   90 1
  98   45   91 1
  99   46   92 1
 100   46   93 1

#	End of record

