#	Name: ASD03090710
#	Creating user name:	WinNT
#	Creation time:	15. 06. 2019 20:29

#	Modifying user name:	WinNT
#	Modification time:	15. 06. 2019 20:29

#	Program:	/corina/corina34_cracker 3.40 0067  02.08.2006

@<TRIPOS>MOLECULE
ASD03090710
  34   35    0    0    0
SMALL
NO_CHARGES


@<TRIPOS>ATOM
   1 N1            -0.0162     1.3436     0.0094 N.am    
   2 C2            -0.0613     0.1290     0.5920 C.2     
   3 O3             0.9567    -0.3760     1.0243 O.2     
   4 N4            -1.2348    -0.5257     0.6952 N.am    
   5 O5            -2.0604    -3.5700     2.0236 O.3     
   6 N6            -2.3386    -2.5325     1.4685 N.2     
   7 C7            -1.2815    -1.7826     1.2981 C.2     
   8 C8            -0.1899    -2.5049     1.8493 C.2     
   9 C9            -0.7512    -3.6490     2.3021 C.2     
  10 C10           -0.0433    -4.7900     2.9863 C.3     
  11 F11           -0.0395    -4.5746     4.3686 F       
  12 C12            1.1765     3.4544    -0.1184 C.ar    
  13 C13            1.1879     2.0646    -0.0179 C.ar    
  14 C14            2.4075     1.4019     0.0554 C.ar    
  15 C15            3.5715     2.1540     0.0254 C.ar    
  16 C16            3.4850     3.5343    -0.0760 C.ar    
  17 N17            2.3087     4.1373    -0.1440 N.ar    
  18 O18            4.6213     4.2766    -0.1058 O.3     
  19 C19            4.4680     5.6935    -0.2112 C.3     
  20 O20           -0.0078     4.1132    -0.1964 O.3     
  21 C21            0.0475     5.5375    -0.2977 C.3     
  22 H22           -0.8148     1.7177    -0.3945 H       
  23 H23           -2.0470    -0.1228     0.3503 H       
  24 H24            0.8479    -2.2093     1.8957 H       
  25 H25           -0.5610    -5.7235     2.7654 H       
  26 H26            0.9833    -4.8496     2.6250 H       
  27 H27            2.4473     0.3255     0.1342 H       
  28 H28            4.5354     1.6701     0.0808 H       
  29 H29            3.9368     5.9339    -1.1322 H       
  30 H30            3.8998     6.0620     0.6428 H       
  31 H31            5.4506     6.1652    -0.2247 H       
  32 H32           -0.9650     5.9374    -0.3526 H       
  33 H33            0.5520     5.9447     0.5785 H       
  34 H34            0.5976     5.8168    -1.1963 H       
@<TRIPOS>BOND
   1    1    2 am
   2    1   13 1
   3    1   22 1
   4    2    3 2
   5    2    4 am
   6    4    7 1
   7    4   23 1
   8    5    6 1
   9    5    9 1
  10    6    7 2
  11    7    8 1
  12    8    9 2
  13    8   24 1
  14    9   10 1
  15   10   11 1
  16   10   25 1
  17   10   26 1
  18   12   13 ar
  19   12   17 ar
  20   12   20 1
  21   13   14 ar
  22   14   15 ar
  23   14   27 1
  24   15   16 ar
  25   15   28 1
  26   16   17 ar
  27   16   18 1
  28   18   19 1
  29   19   29 1
  30   19   30 1
  31   19   31 1
  32   20   21 1
  33   21   32 1
  34   21   33 1
  35   21   34 1

#	End of record

