#	Name: ASD01914684
#	Creating user name:	WinNT
#	Creation time:	15. 06. 2019 20:04

#	Modifying user name:	WinNT
#	Modification time:	15. 06. 2019 20:04

#	Program:	/corina/corina34_cracker 3.40 0067  02.08.2006

@<TRIPOS>MOLECULE
ASD01914684
  40   43    0    0    0
SMALL
NO_CHARGES


@<TRIPOS>ATOM
   1 N1            -0.0160     1.3281     0.0093 N.ar    
   2 C2             0.0021    -0.0041     0.0020 C.ar    
   3 C3             1.2266    -0.6807    -0.0133 C.ar    
   4 N4             2.3541     0.0036    -0.0204 N.ar    
   5 C5             2.3282     1.3261    -0.0130 C.ar    
   6 C6             1.1196     2.0010     0.0021 C.ar    
   7 C7            -1.2263    -0.7401     0.0103 C.1     
   8 C8            -2.2333    -1.3434     0.0170 C.1     
   9 C9            -3.4617    -2.0794     0.0253 C.ar    
  10 C10           -3.4532    -3.4765     0.0177 C.ar    
  11 N11           -4.5832    -4.1525     0.0248 N.ar    
  12 C12           -5.7563    -3.5492     0.0396 C.ar    
  13 C13           -5.8505    -2.1687     0.0480 C.ar    
  14 C14           -4.6935    -1.4108     0.0469 C.ar    
  15 C15           -7.1998    -1.4978     0.0639 C.3     
  16 C16           -7.7830    -1.4889     1.4902 C.3     
  17 O17           -9.0134    -2.2605     1.3730 O.3     
  18 C18           -9.1637    -2.6709     0.1087 C.2     
  19 N19           -8.1757    -2.2817    -0.7086 N.am    
  20 O20          -10.1096    -3.3361    -0.2644 O.2     
  21 C21           -8.0835    -0.0789     1.9292 C.ar    
  22 C22           -7.1553     0.6259     2.6715 C.ar    
  23 C23           -7.4316     1.9215     3.0748 C.ar    
  24 C24           -8.6379     2.5090     2.7338 C.ar    
  25 C25           -9.5648     1.8020     1.9912 C.ar    
  26 C26           -9.2855     0.5109     1.5844 C.ar    
  27 F27           -6.5250     2.6114     3.8009 F       
  28 H28            1.2485    -1.7605    -0.0190 H       
  29 H29            3.2542     1.8819    -0.0189 H       
  30 H30            1.1059     3.0809     0.0077 H       
  31 H31           -2.5122    -4.0064     0.0055 H       
  32 H32           -6.6585    -4.1428     0.0450 H       
  33 H33           -4.7380    -0.3317     0.0537 H       
  34 H34           -7.1261    -0.4826    -0.3260 H       
  35 H35           -7.0959    -1.9689     2.1870 H       
  36 H36           -8.1139    -2.4842    -1.6553 H       
  37 H37           -6.2147     0.1664     2.9373 H       
  38 H38           -8.8546     3.5193     3.0481 H       
  39 H39          -10.5059     2.2602     1.7251 H       
  40 H40          -10.0103    -0.0406     1.0039 H       
@<TRIPOS>BOND
   1    1    2 ar
   2    1    6 ar
   3    2    3 ar
   4    2    7 1
   5    3    4 ar
   6    3   28 1
   7    4    5 ar
   8    5    6 ar
   9    5   29 1
  10    6   30 1
  11    7    8 3
  12    8    9 1
  13    9   10 ar
  14    9   14 ar
  15   10   11 ar
  16   10   31 1
  17   11   12 ar
  18   12   13 ar
  19   12   32 1
  20   13   14 ar
  21   13   15 1
  22   14   33 1
  23   15   16 1
  24   15   19 1
  25   15   34 1
  26   16   17 1
  27   16   21 1
  28   16   35 1
  29   17   18 1
  30   18   19 am
  31   18   20 2
  32   19   36 1
  33   21   22 ar
  34   21   26 ar
  35   22   23 ar
  36   22   37 1
  37   23   24 ar
  38   23   27 1
  39   24   25 ar
  40   24   38 1
  41   25   26 ar
  42   25   39 1
  43   26   40 1

#	End of record

