#	Name: ASD09740016
#	Creating user name:	WinNT
#	Creation time:	15. 06. 2019 21:22

#	Modifying user name:	WinNT
#	Modification time:	15. 06. 2019 21:22

#	Program:	/corina/corina34_cracker 3.40 0067  02.08.2006

@<TRIPOS>MOLECULE
ASD09740016
  37   40    0    0    0
SMALL
NO_CHARGES


@<TRIPOS>ATOM
   1 N1            -0.0144     1.2085     0.0087 N.2     
   2 O2             0.0021    -0.0041     0.0020 O.3     
   3 C3             1.2057     1.6818    -0.0004 C.2     
   4 N4             2.0477     0.6286    -0.0141 N.2     
   5 C5             1.2718    -0.4438    -0.0125 C.2     
   6 C6             1.7135    -1.8444    -0.0242 C.2     
   7 C7             1.5920     3.1152     0.0036 C.ar    
   8 C8             0.6104     4.1036     0.0188 C.ar    
   9 C9             0.9750     5.4348     0.0224 C.ar    
  10 C10            2.3122     5.7882     0.0105 C.ar    
  11 C11            3.2909     4.8109    -0.0046 C.ar    
  12 C12            2.9374     3.4767    -0.0021 C.ar    
  13 C13            0.8940    -2.9185    -0.0222 C.2     
  14 C14            1.5678    -4.1306    -0.0351 C.2     
  15 C15            2.9215    -4.0180    -0.0474 C.2     
  16 S16            3.3879    -2.3770    -0.0507 S.3     
  17 C17            0.8691    -5.4400    -0.0350 C.ar    
  18 C18           -0.1348    -5.6967     0.8966 C.ar    
  19 C19            1.2106    -6.4148    -0.9701 C.ar    
  20 C20            0.5576    -7.6308    -0.9654 C.ar    
  21 C21           -0.4346    -7.8822    -0.0350 C.ar    
  22 C22           -0.7813    -6.9161     0.8922 C.ar    
  23 C23            3.8788    -5.1818    -0.0620 C.3     
  24 F24            4.1626    -5.5356    -1.3855 F       
  25 F25            5.0634    -4.8193     0.5880 F       
  26 F26            3.2992    -6.2707     0.5978 F       
  27 H27           -0.4340     3.8288     0.0274 H       
  28 H28            0.2148     6.2019     0.0342 H       
  29 H29            2.5932     6.8310     0.0127 H       
  30 H30            4.3336     5.0923    -0.0138 H       
  31 H31            3.7023     2.7143    -0.0139 H       
  32 H32           -0.1831    -2.8406    -0.0111 H       
  33 H33           -0.4063    -4.9430     1.6209 H       
  34 H34            1.9846    -6.2193    -1.6974 H       
  35 H35            0.8215    -8.3871    -1.6898 H       
  36 H36           -0.9433    -8.8349    -0.0351 H       
  37 H37           -1.5567    -7.1176     1.6164 H       
@<TRIPOS>BOND
   1    1    2 1
   2    1    3 2
   3    2    5 1
   4    3    4 1
   5    3    7 1
   6    4    5 2
   7    5    6 1
   8    6   13 2
   9    6   16 1
  10    7    8 ar
  11    7   12 ar
  12    8    9 ar
  13    8   27 1
  14    9   10 ar
  15    9   28 1
  16   10   11 ar
  17   10   29 1
  18   11   12 ar
  19   11   30 1
  20   12   31 1
  21   13   14 1
  22   13   32 1
  23   14   15 2
  24   14   17 1
  25   15   16 1
  26   15   23 1
  27   17   18 ar
  28   17   19 ar
  29   18   22 ar
  30   18   33 1
  31   19   20 ar
  32   19   34 1
  33   20   21 ar
  34   20   35 1
  35   21   22 ar
  36   21   36 1
  37   22   37 1
  38   23   24 1
  39   23   25 1
  40   23   26 1

#	End of record

