#	Name: ASD07130015
#	Creating user name:	WinNT
#	Creation time:	15. 06. 2019 21:09

#	Modifying user name:	WinNT
#	Modification time:	15. 06. 2019 21:09

#	Program:	/corina/corina34_cracker 3.40 0067  02.08.2006

@<TRIPOS>MOLECULE
ASD07130015
  24   24    0    0    0
SMALL
NO_CHARGES


@<TRIPOS>ATOM
   1 S1            -0.0218     1.7577     0.0117 S.3     
   2 C2             0.0021    -0.0041     0.0020 C.2     
   3 N3            -1.1798    -0.7081     0.0095 N.pl3   
   4 N4             1.1403    -0.6408    -0.0123 N.2     
   5 C5             4.1353     4.0263    -1.2130 C.ar    
   6 C6             3.4678     3.8905    -0.0102 C.ar    
   7 C7             4.1581     4.0138     1.1811 C.ar    
   8 C8             5.5160     4.2724     1.1695 C.ar    
   9 C9             6.1837     4.4072    -0.0333 C.ar    
  10 C10            5.4936     4.2830    -1.2246 C.ar    
  11 C11            1.7562     2.0963    -0.0035 C.3     
  12 C12            1.9874     3.6087     0.0025 C.3     
  13 H13           -2.0263    -0.2345     0.0201 H       
  14 H14           -1.1667    -1.6780     0.0042 H       
  15 H15            1.1534    -1.6106    -0.0176 H       
  16 H16            3.5968     3.9255    -2.1438 H       
  17 H17            3.6364     3.9085     2.1209 H       
  18 H18            6.0552     4.3694     2.1003 H       
  19 H19            7.2445     4.6095    -0.0424 H       
  20 H20            6.0153     4.3880    -2.1644 H       
  21 H21            2.2177     1.6547     0.8798 H       
  22 H22            2.2007     1.6643    -0.9001 H       
  23 H23            1.5430     4.0407     0.8991 H       
  24 H24            1.5260     4.0503    -0.8808 H       
@<TRIPOS>BOND
   1    1    2 1
   2    1   11 1
   3    2    3 1
   4    2    4 2
   5    3   13 1
   6    3   14 1
   7    4   15 1
   8    5    6 ar
   9    5   10 ar
  10    5   16 1
  11    6    7 ar
  12    6   12 1
  13    7    8 ar
  14    7   17 1
  15    8    9 ar
  16    8   18 1
  17    9   10 ar
  18    9   19 1
  19   10   20 1
  20   11   12 1
  21   11   21 1
  22   11   22 1
  23   12   23 1
  24   12   24 1

#	End of record

