#	Name: ASD01231296
#	Creating user name:	WinNT
#	Creation time:	15. 06. 2019 19:15

#	Modifying user name:	WinNT
#	Modification time:	15. 06. 2019 19:15

#	Program:	/corina/corina34_cracker 3.40 0067  02.08.2006

@<TRIPOS>MOLECULE
ASD01231296
  46   48    0    0    0
SMALL
NO_CHARGES


@<TRIPOS>ATOM
   1 C1            -2.5375     1.6875     1.3408 C.3     
   2 C2            -2.4540     0.1783     1.5776 C.3     
   3 C3            -3.8581    -0.3780     1.8222 C.3     
   4 S4            -1.7314    -0.6235     0.1197 S.o2    
   5 O5            -2.6236    -0.5491    -0.9839 O.2     
   6 O6            -0.3631    -0.2662    -0.0191 O.2     
   7 N7            -1.6959    -2.2329     0.5082 N.am    
   8 C8            -1.6875    -3.2766     2.7546 C.3     
   9 C9            -0.8393    -2.7043     1.5992 C.3     
  10 C10           -0.0120    -3.9299     1.1568 C.3     
  11 C11            0.0835    -4.8080     2.3862 C.ar    
  12 C12            0.9440    -5.8525     2.6764 C.ar    
  13 C13            0.8426    -6.5233     3.8852 C.ar    
  14 C14           -0.1246    -6.1447     4.8053 C.ar    
  15 C15           -0.9808    -5.1026     4.5131 C.ar    
  16 C16           -0.8795    -4.4326     3.3046 C.ar    
  17 O17            1.6878    -7.5492     4.1681 O.3     
  18 C18            1.2097    -8.8148     4.0664 C.ar    
  19 C19            2.0523    -9.8908     4.3168 C.ar    
  20 C20            1.5522   -11.1766     4.2095 C.ar    
  21 C21            0.2205   -11.3416     3.8538 C.ar    
  22 C22           -0.5592   -10.2266     3.6195 C.ar    
  23 N23           -0.0554    -9.0125     3.7349 N.ar    
  24 C24           -2.0057   -10.3982     3.2329 C.3     
  25 F25           -2.7968   -10.4239     4.3865 F       
  26 F26           -2.4010    -9.3303     2.4201 F       
  27 F27           -2.1621   -11.5996     2.5333 F       
  28 H28           -2.9717     2.1693     2.2168 H       
  29 H29           -1.5372     2.0839     1.1665 H       
  30 H30           -3.1632     1.8846     0.4702 H       
  31 H31           -1.8283    -0.0188     2.4481 H       
  32 H32           -4.5058    -0.1097     0.9876 H       
  33 H33           -3.8088    -1.4634     1.9095 H       
  34 H34           -4.2601     0.0426     2.7439 H       
  35 H35           -2.2422    -2.8635     0.0135 H       
  36 H36           -1.8374    -2.5198     3.5246 H       
  37 H37           -2.6476    -3.6309     2.3795 H       
  38 H38           -0.1885    -1.9056     1.9550 H       
  39 H39           -0.5218    -4.4598     0.3522 H       
  40 H40            0.9822    -3.6192     0.8357 H       
  41 H41            1.6962    -6.1458     1.9591 H       
  42 H42           -0.2074    -6.6648     5.7482 H       
  43 H43           -1.7335    -4.8082     5.2296 H       
  44 H44            3.0837    -9.7259     4.5911 H       
  45 H45            2.1837   -12.0323     4.3979 H       
  46 H46           -0.2010   -12.3316     3.7610 H       
@<TRIPOS>BOND
   1    1    2 1
   2    1   28 1
   3    1   29 1
   4    1   30 1
   5    2    3 1
   6    2    4 1
   7    2   31 1
   8    3   32 1
   9    3   33 1
  10    3   34 1
  11    4    5 2
  12    4    6 2
  13    4    7 am
  14    7    9 1
  15    7   35 1
  16    8    9 1
  17    8   16 1
  18    8   36 1
  19    8   37 1
  20    9   10 1
  21    9   38 1
  22   10   11 1
  23   10   39 1
  24   10   40 1
  25   11   12 ar
  26   11   16 ar
  27   12   13 ar
  28   12   41 1
  29   13   14 ar
  30   13   17 1
  31   14   15 ar
  32   14   42 1
  33   15   16 ar
  34   15   43 1
  35   17   18 1
  36   18   19 ar
  37   18   23 ar
  38   19   20 ar
  39   19   44 1
  40   20   21 ar
  41   20   45 1
  42   21   22 ar
  43   21   46 1
  44   22   23 ar
  45   22   24 1
  46   24   25 1
  47   24   26 1
  48   24   27 1

#	End of record

