#	Name: ASD04882119
#	Creating user name:	WinNT
#	Creation time:	15. 06. 2019 20:54

#	Modifying user name:	WinNT
#	Modification time:	15. 06. 2019 20:54

#	Program:	/corina/corina34_cracker 3.40 0067  02.08.2006

@<TRIPOS>MOLECULE
ASD04882119
  84   89    0    0    0
SMALL
NO_CHARGES


@<TRIPOS>ATOM
   1 C1            -0.3865     1.6397    -1.2879 C.ar    
   2 C2            -0.2418     0.3664    -0.7180 C.ar    
   3 C3            -1.4382    -0.4418    -0.4135 C.2     
   4 O4            -1.3163    -1.5462     0.0807 O.2     
   5 N5            -2.6661     0.0440    -0.6832 N.am    
   6 C6            -3.7955    -0.7639    -0.4971 C.ar    
   7 C7            -5.0057    -0.1924    -0.0930 C.ar    
   8 C8            -6.1268    -0.9927     0.0919 C.ar    
   9 C9            -6.0500    -2.3514    -0.1221 C.ar    
  10 C10           -4.8435    -2.9291    -0.5261 C.ar    
  11 C11           -3.7157    -2.1255    -0.7184 C.ar    
  12 N12           -5.0878     1.1804     0.1249 N.3     
  13 C13           -4.2721     1.5800     1.2802 C.3     
  14 C14           -4.3256     3.1014     1.4373 C.3     
  15 N15           -5.7222     3.5246     1.6107 N.3     
  16 C16           -6.5379     3.1250     0.4554 C.3     
  17 C17           -6.4844     1.6036     0.2983 C.3     
  18 C18           -5.8045     4.9017     1.8293 C.ar    
  19 C19           -5.2918     5.4532     2.9969 C.ar    
  20 C20           -5.9672     7.6298     2.2621 C.ar    
  21 C21           -6.3941     5.7235     0.8774 C.ar    
  22 C22           -5.3744     6.8150     3.2096 C.ar    
  23 C23           -6.4734     7.0849     1.0965 C.ar    
  24 C24           -4.6466     4.5660     4.0302 C.3     
  25 C25           -4.7614    -4.3842    -0.7548 C.2     
  26 N26           -5.8505    -5.1573    -0.5741 N.am    
  27 O27           -3.7111    -4.8861    -1.1063 O.2     
  28 C28           -5.7689    -6.6023    -0.8012 C.3     
  29 C29           -7.1329    -7.2393    -0.5278 C.3     
  30 C30           -7.0477    -8.7484    -0.7650 C.3     
  31 N31           -8.3537    -9.3583    -0.5033 N.am    
  32 C32           -9.3131    -9.5236    -1.4302 C.2     
  33 C33          -10.5292   -10.1754    -0.8098 C.3     
  34 C34          -10.3191    -9.9991     0.7120 C.3     
  35 C35           -8.7804    -9.8732     0.8032 C.3     
  36 O36           -9.2178    -9.1972    -2.5944 O.2     
  37 C37            1.0256    -0.1392    -0.4383 C.ar    
  38 C38            2.1477     0.6233    -0.7258 C.ar    
  39 C39            1.9899     1.9012    -1.2979 C.ar    
  40 C40            0.7102     2.3951    -1.5734 C.ar    
  41 N41            3.5008     0.4115    -0.5722 N.pl3   
  42 C42            4.1946     1.4983    -1.0221 C.2     
  43 C43            3.3407     2.4337    -1.4735 C.2     
  44 C44            4.1048    -0.7989    -0.0098 C.3     
  45 H45           -1.3730     2.0215    -1.5057 H       
  46 H46           -2.7679     0.9530    -1.0061 H       
  47 H47           -7.0603    -0.5484     0.4045 H       
  48 H48           -6.9229    -2.9706     0.0228 H       
  49 H49           -2.7829    -2.5687    -1.0345 H       
  50 H50           -4.6622     1.1074     2.1816 H       
  51 H51           -3.2401     1.2667     1.1224 H       
  52 H52           -3.7448     3.3975     2.3109 H       
  53 H53           -3.9104     3.5738     0.5470 H       
  54 H54           -7.5699     3.4383     0.6132 H       
  55 H55           -6.1478     3.5977    -0.4460 H       
  56 H56           -7.0652     1.3075    -0.5753 H       
  57 H57           -6.8996     1.1312     1.1886 H       
  58 H58           -6.0309     8.6946     2.4312 H       
  59 H59           -6.7897     5.2985    -0.0333 H       
  60 H60           -4.9760     7.2444     4.1169 H       
  61 H61           -6.9357     7.7240     0.3588 H       
  62 H62           -3.5696     4.5387     3.8642 H       
  63 H63           -4.8508     4.9599     5.0258 H       
  64 H64           -5.0526     3.5578     3.9480 H       
  65 H65           -6.6883    -4.7569    -0.2937 H       
  66 H66           -5.4800    -6.7919    -1.8350 H       
  67 H67           -5.0255    -7.0340    -0.1312 H       
  68 H68           -7.4218    -7.0497     0.5059 H       
  69 H69           -7.8764    -6.8076    -1.1979 H       
  70 H70           -6.7588    -8.9380    -1.7988 H       
  71 H71           -6.3042    -9.1801    -0.0950 H       
  72 H72          -11.4392    -9.6684    -1.1306 H       
  73 H73          -10.5691   -11.2333    -1.0694 H       
  74 H74          -10.8105    -9.0950     1.0714 H       
  75 H75          -10.6692   -10.8750     1.2581 H       
  76 H76           -8.3298   -10.8479     0.9899 H       
  77 H77           -8.5065    -9.1728     1.5923 H       
  78 H78            1.1339    -1.1201     0.0006 H       
  79 H79            0.5921     3.3748    -2.0123 H       
  80 H80            5.2705     1.5927    -1.0159 H       
  81 H81            3.6028     3.3959    -1.8882 H       
  82 H82            4.2961    -1.5147    -0.8092 H       
  83 H83            5.0439    -0.5423     0.4805 H       
  84 H84            3.4238    -1.2404     0.7179 H       
@<TRIPOS>BOND
   1    1    2 ar
   2    1   40 ar
   3    1   45 1
   4    2    3 1
   5    2   37 ar
   6    3    4 2
   7    3    5 am
   8    5    6 1
   9    5   46 1
  10    6    7 ar
  11    6   11 ar
  12    7    8 ar
  13    7   12 1
  14    8    9 ar
  15    8   47 1
  16    9   10 ar
  17    9   48 1
  18   10   11 ar
  19   10   25 1
  20   11   49 1
  21   12   13 1
  22   12   17 1
  23   13   14 1
  24   13   50 1
  25   13   51 1
  26   14   15 1
  27   14   52 1
  28   14   53 1
  29   15   16 1
  30   15   18 1
  31   16   17 1
  32   16   54 1
  33   16   55 1
  34   17   56 1
  35   17   57 1
  36   18   19 ar
  37   18   21 ar
  38   19   22 ar
  39   19   24 1
  40   20   22 ar
  41   20   23 ar
  42   20   58 1
  43   21   23 ar
  44   21   59 1
  45   22   60 1
  46   23   61 1
  47   24   62 1
  48   24   63 1
  49   24   64 1
  50   25   26 am
  51   25   27 2
  52   26   28 1
  53   26   65 1
  54   28   29 1
  55   28   66 1
  56   28   67 1
  57   29   30 1
  58   29   68 1
  59   29   69 1
  60   30   31 1
  61   30   70 1
  62   30   71 1
  63   31   32 am
  64   31   35 1
  65   32   33 1
  66   32   36 2
  67   33   34 1
  68   33   72 1
  69   33   73 1
  70   34   35 1
  71   34   74 1
  72   34   75 1
  73   35   76 1
  74   35   77 1
  75   37   38 ar
  76   37   78 1
  77   38   39 ar
  78   38   41 1
  79   39   40 ar
  80   39   43 1
  81   40   79 1
  82   41   42 1
  83   41   44 1
  84   42   43 2
  85   42   80 1
  86   43   81 1
  87   44   82 1
  88   44   83 1
  89   44   84 1

#	End of record

