#	Name: ASD01917306
#	Creating user name:	WinNT
#	Creation time:	15. 06. 2019 20:09

#	Modifying user name:	WinNT
#	Modification time:	15. 06. 2019 20:09

#	Program:	/corina/corina34_cracker 3.40 0067  02.08.2006

@<TRIPOS>MOLECULE
ASD01917306
  50   53    0    0    0
SMALL
NO_CHARGES


@<TRIPOS>ATOM
   1 C1            -0.0168     1.3902     0.0097 C.ar    
   2 C2             0.0021    -0.0041     0.0020 C.ar    
   3 N3             1.1281     2.0669     0.0024 N.ar    
   4 N4             1.1562    -0.6463    -0.0125 N.ar    
   5 C5             2.2907     0.0310    -0.0196 C.ar    
   6 C6             2.2753     1.4182    -0.0120 C.ar    
   7 C7            -1.3085     2.1156     0.0197 C.2     
   8 O8            -2.3536     1.4956     0.0213 O.2     
   9 N9            -1.3245     3.4633     0.0271 N.am    
  10 C10           -2.6019     4.1806     0.0371 C.3     
  11 C11           -3.4657     3.8302     1.2613 C.3     
  12 C12           -4.8653     4.4173     1.0685 C.3     
  13 C13           -4.7806     5.9248     0.8223 C.3     
  14 C14           -3.8602     6.1851    -0.3830 C.3     
  15 C15           -4.2573     5.1849    -1.4932 C.3     
  16 C16           -3.4514     3.9012    -1.2242 C.3     
  17 C17           -2.4388     5.7236     0.0340 C.3     
  18 N18           -3.9074     7.5778    -0.8353 N.am    
  19 C19           -5.0754     8.1163    -1.2380 C.2     
  20 O20           -6.0902     7.4462    -1.2260 O.2     
  21 S21           -3.7484    10.6144    -1.7701 S.3     
  22 C22           -5.1228     9.5162    -1.6925 C.2     
  23 N23           -6.1907    10.1449    -2.1036 N.2     
  24 C24           -6.0173    11.3889    -2.4650 C.2     
  25 C25           -4.7629    11.8564    -2.3656 C.2     
  26 C26           -7.1539    12.2444    -2.9622 C.3     
  27 C27            3.5727     2.1848    -0.0208 C.3     
  28 H28           -0.9252    -0.5578     0.0083 H       
  29 H29            3.2328    -0.4969    -0.0315 H       
  30 H30           -0.4903     3.9582     0.0259 H       
  31 H31           -3.5351     2.7469     1.3606 H       
  32 H32           -3.0139     4.2518     2.1592 H       
  33 H33           -5.3426     3.9384     0.2135 H       
  34 H34           -5.4609     4.2306     1.9621 H       
  35 H35           -5.7758     6.3166     0.6125 H       
  36 H36           -4.3725     6.4162     1.7056 H       
  37 H37           -5.3255     4.9741    -1.4429 H       
  38 H38           -4.0006     5.5902    -2.4719 H       
  39 H39           -2.8024     3.6817    -2.0720 H       
  40 H40           -4.1274     3.0656    -1.0430 H       
  41 H41           -2.1842     6.0917     1.0279 H       
  42 H42           -1.6954     6.0366    -0.6991 H       
  43 H43           -3.0980     8.1123    -0.8448 H       
  44 H44           -4.4451    12.8566    -2.6205 H       
  45 H45           -7.6183    12.7571    -2.1199 H       
  46 H46           -6.7721    12.9804    -3.6698 H       
  47 H47           -7.8934    11.6145    -3.4567 H       
  48 H48            3.8955     2.3644     1.0047 H       
  49 H49            4.3332     1.6060    -0.5450 H       
  50 H50            3.4279     3.1384    -0.5285 H       
@<TRIPOS>BOND
   1    1    2 ar
   2    1    3 ar
   3    1    7 1
   4    2    4 ar
   5    2   28 1
   6    3    6 ar
   7    4    5 ar
   8    5    6 ar
   9    5   29 1
  10    6   27 1
  11    7    8 2
  12    7    9 am
  13    9   10 1
  14    9   30 1
  15   10   11 1
  16   10   16 1
  17   10   17 1
  18   11   12 1
  19   11   31 1
  20   11   32 1
  21   12   13 1
  22   12   33 1
  23   12   34 1
  24   13   14 1
  25   13   35 1
  26   13   36 1
  27   14   15 1
  28   14   17 1
  29   14   18 1
  30   15   16 1
  31   15   37 1
  32   15   38 1
  33   16   39 1
  34   16   40 1
  35   17   41 1
  36   17   42 1
  37   18   19 am
  38   18   43 1
  39   19   20 2
  40   19   22 1
  41   21   22 1
  42   21   25 1
  43   22   23 2
  44   23   24 1
  45   24   25 2
  46   24   26 1
  47   25   44 1
  48   26   45 1
  49   26   46 1
  50   26   47 1
  51   27   48 1
  52   27   49 1
  53   27   50 1

#	End of record

