#	Name: ASD01810141
#	Creating user name:	WinNT
#	Creation time:	15. 06. 2019 19:23

#	Modifying user name:	WinNT
#	Modification time:	15. 06. 2019 19:23

#	Program:	/corina/corina34_cracker 3.40 0067  02.08.2006

@<TRIPOS>MOLECULE
ASD01810141
  38   41    0    0    0
SMALL
NO_CHARGES


@<TRIPOS>ATOM
   1 C1            -0.1770     1.1788    -0.5080 C.ar    
   2 C2            -0.0846    -0.2051    -0.4764 C.ar    
   3 C3             1.1388    -0.8262    -0.3326 C.ar    
   4 C4             2.2985    -0.0604    -0.2172 C.ar    
   5 C5             2.2002     1.3406    -0.2497 C.ar    
   6 C6             0.9560     1.9540    -0.3957 C.ar    
   7 N7             3.5276    -0.6681    -0.0719 N.pl3   
   8 C8             4.6689     0.0220     0.0441 C.2     
   9 C9             4.6991     1.4021     0.0265 C.2     
  10 C10            3.4343     2.1389    -0.1267 C.2     
  11 O11            3.4075     3.3569    -0.1484 O.2     
  12 C12            5.9729     2.1234     0.1577 C.2     
  13 O13            5.9892     3.4712     0.1391 O.3     
  14 O14            7.0117     1.5046     0.2829 O.2     
  15 C15            3.5871    -2.1316    -0.0427 C.3     
  16 C16            3.0151    -2.7809     1.1912 C.ar    
  17 C17            3.4225    -2.8720    -1.3714 C.3     
  18 C18            4.7956    -2.8028    -0.6984 C.3     
  19 C19            2.7332    -2.0156     2.3074 C.ar    
  20 C20            2.2086    -2.6112     3.4391 C.ar    
  21 C21            1.9654    -3.9719     3.4546 C.ar    
  22 C22            2.2464    -4.7370     2.3381 C.ar    
  23 C23            2.7670    -4.1407     1.2048 C.ar    
  24 F24            1.2133    -2.1748    -0.3030 F       
  25 H25           -1.1414     1.6504    -0.6257 H       
  26 H26           -0.9799    -0.8026    -0.5650 H       
  27 H27            0.8814     3.0311    -0.4209 H       
  28 H28            5.5970    -0.5190     0.1554 H       
  29 H29            6.8508     3.9011     0.2287 H       
  30 H30            2.9008    -3.8289    -1.3531 H       
  31 H31            3.2699    -2.2702    -2.2674 H       
  32 H32            5.5462    -2.1555    -1.1519 H       
  33 H33            5.1768    -3.7141    -0.2377 H       
  34 H34            2.9233    -0.9526     2.2953 H       
  35 H35            1.9891    -2.0135     4.3115 H       
  36 H36            1.5562    -4.4373     4.3391 H       
  37 H37            2.0567    -5.8001     2.3503 H       
  38 H38            2.9865    -4.7384     0.3325 H       
@<TRIPOS>BOND
   1    1    2 ar
   2    1    6 ar
   3    1   25 1
   4    2    3 ar
   5    2   26 1
   6    3    4 ar
   7    3   24 1
   8    4    5 ar
   9    4    7 1
  10    5    6 ar
  11    5   10 1
  12    6   27 1
  13    7    8 1
  14    7   15 1
  15    8    9 2
  16    8   28 1
  17    9   10 1
  18    9   12 1
  19   10   11 2
  20   12   13 1
  21   12   14 2
  22   13   29 1
  23   15   16 1
  24   15   17 1
  25   15   18 1
  26   16   19 ar
  27   16   23 ar
  28   17   18 1
  29   17   30 1
  30   17   31 1
  31   18   32 1
  32   18   33 1
  33   19   20 ar
  34   19   34 1
  35   20   21 ar
  36   20   35 1
  37   21   22 ar
  38   21   36 1
  39   22   23 ar
  40   22   37 1
  41   23   38 1

#	End of record

