#	Name: ASD01150440
#	Creating user name:	WinNT
#	Creation time:	15. 06. 2019 19:04

#	Modifying user name:	WinNT
#	Modification time:	15. 06. 2019 19:04

#	Program:	/corina/corina34_cracker 3.40 0067  02.08.2006

@<TRIPOS>MOLECULE
ASD01150440
  53   56    0    0    0
SMALL
NO_CHARGES


@<TRIPOS>ATOM
   1 C1             0.3253     1.3758     0.8380 C.ar    
   2 C2             0.3430    -0.0048     0.8280 C.ar    
   3 C3             1.2083    -0.6808    -0.0131 C.ar    
   4 C4             2.0581     0.0229    -0.8464 C.ar    
   5 C5             2.0458     1.4041    -0.8410 C.ar    
   6 C6             1.1779     2.0860     0.0020 C.ar    
   7 N7             1.1625     3.4851     0.0097 N.am    
   8 C8             2.3215     4.1600     0.1046 C.2     
   9 N9             2.3436     5.5059     0.1145 N.am    
  10 C10            1.1907     6.2013     0.0282 C.2     
  11 C11           -0.0805     5.4689    -0.0759 C.2     
  12 N12           -0.0589     4.1622    -0.0875 N.2     
  13 O13            1.2024     7.4182     0.0368 O.2     
  14 C14            3.6206     6.2161     0.2194 C.3     
  15 O15            3.3673     3.5443     0.1834 O.2     
  16 C16            4.1702     6.4681    -1.1610 C.ar    
  17 C17            3.8429     7.6309    -1.8333 C.ar    
  18 C18            4.3466     7.8626    -3.0994 C.ar    
  19 C19            5.1785     6.9306    -3.6939 C.ar    
  20 C20            5.5057     5.7670    -3.0205 C.ar    
  21 C21            5.0059     5.5391    -1.7522 C.ar    
  22 O22           -1.2582     6.1403    -0.1643 O.3     
  23 C23           -2.4474     5.3540    -0.2623 C.3     
  24 Cl24           5.8111     7.2206    -5.2843 Cl      
  25 C25           -0.5811    -0.7760     1.7349 C.3     
  26 C26           -1.9018    -1.0425     1.0100 C.3     
  27 C27           -2.8429    -1.8254     1.9277 C.3     
  28 O28           -2.5108     0.2031     0.6451 O.3     
  29 C29           -2.6542     0.2060    -0.7897 C.3     
  30 C30           -2.6067    -1.3000    -1.1497 C.3     
  31 O31           -1.6522    -1.8003    -0.1858 O.3     
  32 H32           -0.3537     1.9030     1.4918 H       
  33 H33            1.2204    -1.7607    -0.0188 H       
  34 H34            2.7325    -0.5079    -1.5020 H       
  35 H35            2.7103     1.9532    -1.4917 H       
  36 H36            3.4665     7.1676     0.7284 H       
  37 H37            4.3275     5.6108     0.7869 H       
  38 H38            3.1933     8.3582    -1.3693 H       
  39 H39            4.0906     8.7709    -3.6246 H       
  40 H40            6.1550     5.0391    -3.4841 H       
  41 H41            5.2612     4.6309    -1.2265 H       
  42 H42           -3.3139     6.0121    -0.3264 H       
  43 H43           -2.3981     4.7303    -1.1549 H       
  44 H44           -2.5373     4.7197     0.6196 H       
  45 H45           -0.1170    -1.7246     2.0048 H       
  46 H46           -0.7726    -0.1954     2.6372 H       
  47 H47           -3.0360    -1.2455     2.8302 H       
  48 H48           -3.7829    -2.0138     1.4088 H       
  49 H49           -2.3804    -2.7748     2.1977 H       
  50 H50           -3.6102     0.6416    -1.0804 H       
  51 H51           -1.8278     0.7403    -1.2583 H       
  52 H52           -3.5829    -1.7650    -1.0125 H       
  53 H53           -2.2458    -1.4467    -2.1677 H       
@<TRIPOS>BOND
   1    1    2 ar
   2    1    6 ar
   3    1   32 1
   4    2    3 ar
   5    2   25 1
   6    3    4 ar
   7    3   33 1
   8    4    5 ar
   9    4   34 1
  10    5    6 ar
  11    5   35 1
  12    6    7 1
  13    7    8 am
  14    7   12 1
  15    8    9 am
  16    8   15 2
  17    9   10 am
  18    9   14 1
  19   10   11 1
  20   10   13 2
  21   11   12 2
  22   11   22 1
  23   14   16 1
  24   14   36 1
  25   14   37 1
  26   16   17 ar
  27   16   21 ar
  28   17   18 ar
  29   17   38 1
  30   18   19 ar
  31   18   39 1
  32   19   20 ar
  33   19   24 1
  34   20   21 ar
  35   20   40 1
  36   21   41 1
  37   22   23 1
  38   23   42 1
  39   23   43 1
  40   23   44 1
  41   25   26 1
  42   25   45 1
  43   25   46 1
  44   26   27 1
  45   26   28 1
  46   26   31 1
  47   27   47 1
  48   27   48 1
  49   27   49 1
  50   28   29 1
  51   29   30 1
  52   29   50 1
  53   29   51 1
  54   30   31 1
  55   30   52 1
  56   30   53 1

#	End of record

