#	Name: ASD05430645
#	Creating user name:	WinNT
#	Creation time:	15. 06. 2019 21:00

#	Modifying user name:	WinNT
#	Modification time:	15. 06. 2019 21:00

#	Program:	/corina/corina34_cracker 3.40 0067  02.08.2006

@<TRIPOS>MOLECULE
ASD05430645
  32   33    0    0    0
SMALL
NO_CHARGES


@<TRIPOS>ATOM
   1 C1            -0.0168     1.3884     0.0097 C.ar    
   2 C2             0.0021    -0.0041     0.0020 C.ar    
   3 C3            -1.1916    -0.7102     0.0101 C.ar    
   4 C4            -2.3954    -0.0318     0.0257 C.ar    
   5 C5            -2.4137     1.3509     0.0329 C.ar    
   6 C6            -1.2281     2.0614     0.0307 C.ar    
   7 C7            -3.7297     2.0850     0.0489 C.3     
   8 C8            -4.5381     1.7098    -1.1947 C.3     
   9 C9            -4.5147     1.6972     1.3036 C.3     
  10 N10            1.2260    -0.6911    -0.0143 N.pl3   
  11 C11            1.5983    -1.7122     0.8208 C.2     
  12 C12            2.2624    -0.4736    -0.8643 C.2     
  13 N13            3.2231    -1.3071    -0.5705 N.2     
  14 C14            2.8428    -2.0782     0.4588 C.2     
  15 O15            1.1502     2.0857     0.0023 O.3     
  16 C16            1.0540     3.5115     0.0109 C.3     
  17 H17           -1.1803    -1.7902     0.0038 H       
  18 H18           -3.3242    -0.5829     0.0320 H       
  19 H19           -1.2458     3.1412     0.0363 H       
  20 H20           -3.5464     3.1595     0.0526 H       
  21 H21           -4.7215     0.6354    -1.1984 H       
  22 H22           -5.4900     2.2408    -1.1831 H       
  23 H23           -3.9789     1.9861    -2.0886 H       
  24 H24           -4.6981     0.6228     1.2999 H       
  25 H25           -3.9388     1.9645     2.1896 H       
  26 H26           -5.4666     2.2282     1.3152 H       
  27 H27            1.0072    -2.1408     1.6166 H       
  28 H28            2.2877     0.2654    -1.6515 H       
  29 H29            3.4324    -2.8580     0.9178 H       
  30 H30            2.0548     3.9432     0.0036 H       
  31 H31            0.5084     3.8441    -0.8722 H       
  32 H32            0.5254     3.8346     0.9077 H       
@<TRIPOS>BOND
   1    1    2 ar
   2    1   15 1
   3    1    6 ar
   4    2    3 ar
   5    2   10 1
   6    3    4 ar
   7    3   17 1
   8    4    5 ar
   9    4   18 1
  10    5    6 ar
  11    5    7 1
  12    6   19 1
  13    7    8 1
  14    7    9 1
  15    7   20 1
  16    8   21 1
  17    8   22 1
  18    8   23 1
  19    9   24 1
  20    9   25 1
  21    9   26 1
  22   10   11 1
  23   10   12 1
  24   11   14 2
  25   11   27 1
  26   12   13 2
  27   12   28 1
  28   13   14 1
  29   14   29 1
  30   15   16 1
  31   16   30 1
  32   16   31 1
  33   16   32 1

#	End of record

