#	Name: ASD01910034
#	Creating user name:	WinNT
#	Creation time:	15. 06. 2019 19:55

#	Modifying user name:	WinNT
#	Modification time:	15. 06. 2019 19:55

#	Program:	/corina/corina34_cracker 3.40 0067  02.08.2006

@<TRIPOS>MOLECULE
ASD01910034
  47   50    0    0    0
SMALL
NO_CHARGES


@<TRIPOS>ATOM
   1 C1            -0.0167     1.3769     0.0096 C.ar    
   2 C2             0.0021    -0.0041     0.0020 C.ar    
   3 C3             1.2080    -0.6806    -0.0131 C.ar    
   4 C4             2.3987     0.0227    -0.0203 C.ar    
   5 C5             2.3866     1.4038    -0.0127 C.ar    
   6 C6             1.1772     2.0861     0.0020 C.ar    
   7 N7             1.1616     3.4868     0.0092 N.pl3   
   8 C8             0.2443     4.2805    -0.6103 C.2     
   9 C9             0.5824     5.5733    -0.3616 C.2     
  10 C10            1.7430     5.5691     0.4348 C.2     
  11 N11            2.0831     4.3171     0.6597 N.2     
  12 N12           -0.8445     3.8456    -1.3631 N.am    
  13 C13           -1.6781     4.7441    -1.9237 C.2     
  14 C14           -2.8345     4.2822    -2.7233 C.ar    
  15 C15           -3.6978     5.2127    -3.3040 C.ar    
  16 C16           -4.7744     4.7825    -4.0489 C.ar    
  17 C17           -5.0014     3.4165    -4.2228 C.ar    
  18 C18           -4.1385     2.4860    -3.6419 C.ar    
  19 C19           -3.0586     2.9161    -2.9017 C.ar    
  20 C20            2.4564     6.7685     0.9393 C.ar    
  21 C21            3.5999     6.6242     1.7223 C.ar    
  22 C22            4.2594     7.7432     2.1889 C.ar    
  23 C23            3.7869     9.0063     1.8808 C.ar    
  24 C24            2.6520     9.1554     1.1042 C.ar    
  25 C25            1.9884     8.0433     0.6269 C.ar    
  26 O26           -1.4801     5.9338    -1.7726 O.2     
  27 C27           -6.1578     2.9545    -5.0230 C.2     
  28 N28           -6.3771     1.6353    -5.1910 N.am    
  29 O29           -6.9095     3.7646    -5.5286 O.2     
  30 H30           -0.9589     1.9047     0.0169 H       
  31 H31           -0.9261    -0.5562     0.0083 H       
  32 H32            1.2201    -1.7605    -0.0190 H       
  33 H33            3.3389    -0.5085    -0.0314 H       
  34 H34            3.3168     1.9525    -0.0179 H       
  35 H35            0.0551     6.4478    -0.7131 H       
  36 H36           -1.0026     2.8962    -1.4837 H       
  37 H37           -3.5223     6.2698    -3.1691 H       
  38 H38           -5.4426     5.5024    -4.4979 H       
  39 H39           -4.3145     1.4290    -3.7762 H       
  40 H40           -2.3909     2.1961    -2.4521 H       
  41 H41            3.9692     5.6385     1.9640 H       
  42 H42            5.1458     7.6325     2.7959 H       
  43 H43            4.3059     9.8792     2.2482 H       
  44 H44            2.2873    10.1438     0.8670 H       
  45 H45            1.1026     8.1608     0.0203 H       
  46 H46           -5.7772     0.9887    -4.7875 H       
  47 H47           -7.1349     1.3326    -5.7154 H       
@<TRIPOS>BOND
   1    1    2 ar
   2    1    6 ar
   3    1   30 1
   4    2    3 ar
   5    2   31 1
   6    3    4 ar
   7    3   32 1
   8    4    5 ar
   9    4   33 1
  10    5    6 ar
  11    5   34 1
  12    6    7 1
  13    7    8 1
  14    7   11 1
  15    8    9 2
  16    8   12 1
  17    9   10 1
  18    9   35 1
  19   10   11 2
  20   10   20 1
  21   12   13 am
  22   12   36 1
  23   13   14 1
  24   13   26 2
  25   14   15 ar
  26   14   19 ar
  27   15   16 ar
  28   15   37 1
  29   16   17 ar
  30   16   38 1
  31   17   18 ar
  32   17   27 1
  33   18   19 ar
  34   18   39 1
  35   19   40 1
  36   20   21 ar
  37   20   25 ar
  38   21   22 ar
  39   21   41 1
  40   22   23 ar
  41   22   42 1
  42   23   24 ar
  43   23   43 1
  44   24   25 ar
  45   24   44 1
  46   25   45 1
  47   27   28 am
  48   27   29 2
  49   28   46 1
  50   28   47 1

#	End of record

