#	Name: ASD04840035
#	Creating user name:	WinNT
#	Creation time:	15. 06. 2019 20:52

#	Modifying user name:	WinNT
#	Modification time:	15. 06. 2019 20:52

#	Program:	/corina/corina34_cracker 3.40 0067  02.08.2006

@<TRIPOS>MOLECULE
ASD04840035
  28   30    0    0    0
SMALL
NO_CHARGES


@<TRIPOS>ATOM
   1 C1            -0.0158     1.3125     0.0093 C.ar    
   2 N2             0.0021    -0.0041     0.0020 N.ar    
   3 C3             1.1497    -0.6768    -0.0125 C.ar    
   4 C4             2.3649     0.0367    -0.0203 C.ar    
   5 C5             2.2850     1.4580    -0.0115 C.ar    
   6 N6             1.0860     2.0316     0.0026 N.ar    
   7 C7             3.4815    -0.8029    -0.0354 C.2     
   8 C8             3.2184    -2.1143    -0.0400 C.2     
   9 S9             1.4869    -2.4024    -0.0250 S.3     
  10 C10            3.5086     2.2780    -0.0182 C.2     
  11 O11            3.4278     3.4877    -0.0106 O.2     
  12 C12            4.2458    -3.1764    -0.0550 C.ar    
  13 C13            3.8657    -4.5197    -0.0586 C.ar    
  14 C14            6.1712    -5.1667    -0.0826 C.ar    
  15 C15            5.6009    -2.8408    -0.0714 C.ar    
  16 C16            4.8299    -5.5061    -0.0726 C.ar    
  17 C17            6.5548    -3.8372    -0.0853 C.ar    
  18 C18            7.2190    -6.2497    -0.0969 C.3     
  19 H19           -0.9689     1.8203     0.0165 H       
  20 H20            4.4907    -0.4183    -0.0433 H       
  21 H21            4.4778     1.8016    -0.0300 H       
  22 H22            2.8190    -4.7860    -0.0501 H       
  23 H23            5.9016    -1.8036    -0.0735 H       
  24 H24            4.5372    -6.5457    -0.0755 H       
  25 H25            7.6035    -3.5791    -0.0928 H       
  26 H26            7.4627    -6.5059    -1.1279 H       
  27 H27            8.1157    -5.8945     0.4109 H       
  28 H28            6.8364    -7.1321     0.4160 H       
@<TRIPOS>BOND
   1    1    2 ar
   2    1    6 ar
   3    1   19 1
   4    2    3 ar
   5    3    4 ar
   6    3    9 1
   7    4    5 ar
   8    4    7 1
   9    5    6 ar
  10    5   10 1
  11    7    8 2
  12    7   20 1
  13    8    9 1
  14    8   12 1
  15   10   11 2
  16   10   21 1
  17   12   13 ar
  18   12   15 ar
  19   13   16 ar
  20   13   22 1
  21   14   16 ar
  22   14   17 ar
  23   14   18 1
  24   15   17 ar
  25   15   23 1
  26   16   24 1
  27   17   25 1
  28   18   26 1
  29   18   27 1
  30   18   28 1

#	End of record

