#	Name: ASD01140384
#	Creating user name:	WinNT
#	Creation time:	15. 06. 2019 19:00

#	Modifying user name:	WinNT
#	Modification time:	15. 06. 2019 19:00

#	Program:	/corina/corina34_cracker 3.40 0067  02.08.2006

@<TRIPOS>MOLECULE
ASD01140384
  47   51    0    0    0
SMALL
NO_CHARGES


@<TRIPOS>ATOM
   1 S1            -0.0218     1.7597     0.0117 S.3     
   2 C2             0.0021    -0.0041     0.0020 C.2     
   3 N3             1.2501    -0.3825    -0.0119 N.2     
   4 N4             2.1145     0.5377    -0.0152 N.2     
   5 C5             1.6909     1.7653    -0.0046 C.2     
   6 O6             2.4759     2.8704    -0.0062 O.3     
   7 C7             6.0930     3.6689    -0.6230 C.3     
   8 C8             4.5690     3.8289    -0.7431 C.3     
   9 C9             3.8895     2.6620    -0.0208 C.3     
  10 C10            4.4063     2.5734     1.4180 C.3     
  11 C11            5.9413     2.4985     1.3917 C.3     
  12 C12            6.3450     1.4346     0.3451 C.3     
  13 C13            6.4452     2.2080    -0.9862 C.3     
  14 N14            6.4353     3.7794     0.8200 N.3     
  15 C15            7.8859     3.9150     1.0081 C.3     
  16 N16           -4.3210    -3.5791     0.0250 N.pl3   
  17 C17           -3.6504    -4.7716     0.0119 C.2     
  18 C18           -2.3262    -4.5523    -0.0000 C.2     
  19 C19           -2.1331    -3.0997     0.0058 C.ar    
  20 C20           -1.0105    -2.2727    -0.0005 C.ar    
  21 C21           -1.1795    -0.8930     0.0085 C.ar    
  22 C22           -2.4682    -0.3439     0.0242 C.ar    
  23 C23           -3.5684    -1.1506     0.0304 C.ar    
  24 C24           -3.4225    -2.5355     0.0216 C.ar    
  25 C25           -4.3021    -6.1304     0.0116 C.3     
  26 F26           -5.6929    -5.9805     0.0261 F       
  27 F27           -3.9204    -6.8303    -1.1380 F       
  28 F28           -3.8978    -6.8417     1.1464 F       
  29 H29            6.6313     4.3883    -1.2401 H       
  30 H30            4.2634     4.7695    -0.2850 H       
  31 H31            4.2831     3.8233    -1.7950 H       
  32 H32            4.1135     1.7321    -0.5436 H       
  33 H33            4.0934     3.4576     1.9734 H       
  34 H34            4.0052     1.6794     1.8956 H       
  35 H35            6.3590     2.2874     2.3761 H       
  36 H36            7.3090     0.9959     0.6024 H       
  37 H37            5.5809     0.6602     0.2772 H       
  38 H38            5.7305     1.8139    -1.7086 H       
  39 H39            7.4586     2.1496    -1.3834 H       
  40 H40            8.2365     4.8112     0.4961 H       
  41 H41            8.1086     3.9939     2.0722 H       
  42 H42            8.3891     3.0406     0.5954 H       
  43 H43           -5.2862    -3.4829     0.0314 H       
  44 H44           -1.5505    -5.3037    -0.0114 H       
  45 H45           -0.0187    -2.7001    -0.0114 H       
  46 H46           -2.5920     0.7289     0.0319 H       
  47 H47           -4.5559    -0.7136     0.0426 H       
@<TRIPOS>BOND
   1    1    2 1
   2    1    5 1
   3    2    3 2
   4    2   21 1
   5    3    4 1
   6    4    5 2
   7    5    6 1
   8    6    9 1
   9    7    8 1
  10    7   13 1
  11    7   14 1
  12    7   29 1
  13    8    9 1
  14    8   30 1
  15    8   31 1
  16    9   10 1
  17    9   32 1
  18   10   11 1
  19   10   33 1
  20   10   34 1
  21   11   12 1
  22   11   14 1
  23   11   35 1
  24   12   13 1
  25   12   36 1
  26   12   37 1
  27   13   38 1
  28   13   39 1
  29   14   15 1
  30   15   40 1
  31   15   41 1
  32   15   42 1
  33   16   17 1
  34   16   24 1
  35   16   43 1
  36   17   18 2
  37   17   25 1
  38   18   19 1
  39   18   44 1
  40   19   20 ar
  41   19   24 ar
  42   20   21 ar
  43   20   45 1
  44   21   22 ar
  45   22   23 ar
  46   22   46 1
  47   23   24 ar
  48   23   47 1
  49   25   26 1
  50   25   27 1
  51   25   28 1

#	End of record

