#	Name: ASD09080022
#	Creating user name:	WinNT
#	Creation time:	15. 06. 2019 21:20

#	Modifying user name:	WinNT
#	Modification time:	15. 06. 2019 21:20

#	Program:	/corina/corina34_cracker 3.40 0067  02.08.2006

@<TRIPOS>MOLECULE
ASD09080022
  52   53    0    0    0
SMALL
NO_CHARGES


@<TRIPOS>ATOM
   1 C1            -0.0167     1.3799     0.0096 C.ar    
   2 C2             0.0021    -0.0041     0.0020 C.ar    
   3 C3            -1.1844    -0.7169     0.0091 C.ar    
   4 C4            -2.3938    -0.0494     0.0242 C.ar    
   5 C5            -2.4179     1.3436     0.0324 C.ar    
   6 C6            -1.2209     2.0565     0.0305 C.ar    
   7 Cl7            1.4756     2.2669     0.0001 Cl      
   8 Cl8           -1.1526    -2.4526    -0.0017 Cl      
   9 C9            -3.7143     2.0655     0.0481 C.ar    
  10 C10           -3.7388     3.4586     0.0563 C.ar    
  11 C11           -4.9474     4.1250     0.0704 C.ar    
  12 C12           -6.1329     3.4124     0.0765 C.ar    
  13 C13           -6.1145     2.0293     0.0689 C.ar    
  14 C14           -4.9116     1.3528     0.0489 C.ar    
  15 C15           -7.4494     4.1455     0.0919 C.3     
  16 C16           -7.9073     4.4019    -1.3453 C.3     
  17 C17           -9.2797     5.0244    -1.3318 C.2     
  18 N18           -6.9653     5.3107    -2.0032 N.am    
  19 C19           -9.4926     6.1795    -1.9576 C.2     
  20 C20          -10.8308     6.7865    -1.9444 C.2     
  21 O21          -11.7431     6.2336    -1.3621 O.2     
  22 C22           -6.7582     6.5447    -1.5024 C.2     
  23 C23           -5.7891     7.4797    -2.1791 C.3     
  24 O24           -7.3516     6.9028    -0.5072 O.2     
  25 O25           -5.7439     8.7170    -1.4657 O.3     
  26 C26           -4.8498     9.6796    -2.0278 C.3     
  27 O27          -11.0465     7.9564    -2.5782 O.3     
  28 C28          -12.4432     9.8187    -3.2933 C.3     
  29 C29          -12.3928     8.4973    -2.5236 C.3     
  30 H30            0.9456    -0.5295    -0.0098 H       
  31 H31           -3.3190    -0.6065     0.0293 H       
  32 H32           -1.2346     3.1364     0.0372 H       
  33 H33           -2.8137     4.0160     0.0519 H       
  34 H34           -4.9675     5.2048     0.0771 H       
  35 H35           -7.0430     1.4778     0.0744 H       
  36 H36           -4.8983     0.2729     0.0430 H       
  37 H37           -8.1955     3.5418     0.6087 H       
  38 H38           -7.3295     5.0969     0.6102 H       
  39 H39           -7.9418     3.4581    -1.8895 H       
  40 H40          -10.0904     4.5331    -0.8143 H       
  41 H41           -6.4906     5.0244    -2.7991 H       
  42 H42           -8.6819     6.6707    -2.4750 H       
  43 H43           -4.7965     7.0294    -2.1889 H       
  44 H44           -6.1153     7.6623    -3.2030 H       
  45 H45           -3.8377     9.2750    -2.0344 H       
  46 H46           -5.1565     9.9079    -3.0485 H       
  47 H47           -4.8731    10.5902    -1.4291 H       
  48 H48          -11.7482    10.5278    -2.8437 H       
  49 H49          -12.1634     9.6448    -4.3323 H       
  50 H50          -13.4539    10.2247    -3.2523 H       
  51 H51          -13.0878     7.7882    -2.9733 H       
  52 H52          -12.6726     8.6712    -1.4846 H       
@<TRIPOS>BOND
   1    1    2 ar
   2    1    7 1
   3    1    6 ar
   4    2    3 ar
   5    2   30 1
   6    3    4 ar
   7    3    8 1
   8    4    5 ar
   9    4   31 1
  10    5    6 ar
  11    5    9 1
  12    6   32 1
  13    9   10 ar
  14    9   14 ar
  15   10   11 ar
  16   10   33 1
  17   11   12 ar
  18   11   34 1
  19   12   13 ar
  20   12   15 1
  21   13   14 ar
  22   13   35 1
  23   14   36 1
  24   15   16 1
  25   15   37 1
  26   15   38 1
  27   16   17 1
  28   16   18 1
  29   16   39 1
  30   17   19 2
  31   17   40 1
  32   18   22 am
  33   18   41 1
  34   19   20 1
  35   19   42 1
  36   20   21 2
  37   20   27 1
  38   22   23 1
  39   22   24 2
  40   23   25 1
  41   23   43 1
  42   23   44 1
  43   25   26 1
  44   26   45 1
  45   26   46 1
  46   26   47 1
  47   27   29 1
  48   28   29 1
  49   28   48 1
  50   28   49 1
  51   28   50 1
  52   29   51 1
  53   29   52 1

#	End of record

