#	Name: ASD03081301
#	Creating user name:	WinNT
#	Creation time:	15. 06. 2019 20:27

#	Modifying user name:	WinNT
#	Modification time:	15. 06. 2019 20:27

#	Program:	/corina/corina34_cracker 3.40 0067  02.08.2006

@<TRIPOS>MOLECULE
ASD03081301
  40   43    0    0    0
SMALL
NO_CHARGES


@<TRIPOS>ATOM
   1 O1            -0.0162     1.3445     0.0094 O.3     
   2 C2             0.0021    -0.0041     0.0020 C.2     
   3 N3             1.2612    -0.3804    -0.0120 N.2     
   4 N4             2.0180     0.6601    -0.0137 N.2     
   5 C5             1.2729     1.7417    -0.0007 C.2     
   6 C6             0.8552     4.2024     0.0165 C.ar    
   7 C7             1.7578     3.1372     0.0021 C.ar    
   8 C8             3.1301     3.4142    -0.0090 C.ar    
   9 C9             3.5320     4.7384    -0.0053 C.ar    
  10 C10            2.5746     5.7365     0.0092 C.ar    
  11 N11            1.2875     5.4461     0.0194 N.ar    
  12 C12           -1.1761    -0.8942     0.0089 C.ar    
  13 C13           -1.0065    -2.2806    -0.0002 C.ar    
  14 C14           -2.1087    -3.1077     0.0068 C.ar    
  15 C15           -3.3870    -2.5645     0.0224 C.ar    
  16 C16           -3.5601    -1.1863     0.0315 C.ar    
  17 C17           -2.4633    -0.3521     0.0304 C.ar    
  18 O18           -4.4708    -3.3832     0.0283 O.3     
  19 C19           -5.7558    -2.7584     0.0444 C.3     
  20 C20           -6.8289    -3.8165     0.0489 C.ar    
  21 C21           -7.3093    -4.3086     1.2480 C.ar    
  22 C22           -8.2935    -5.2793     1.2521 C.ar    
  23 C23           -8.7977    -5.7574     0.0571 C.ar    
  24 C24           -8.3179    -5.2646    -1.1421 C.ar    
  25 C25           -7.3367    -4.2909    -1.1461 C.ar    
  26 H26           -0.2065     4.0045     0.0207 H       
  27 H27            3.8565     2.6150    -0.0199 H       
  28 H28            4.5823     4.9899    -0.0133 H       
  29 H29            2.8856     6.7708     0.0125 H       
  30 H30           -0.0129    -2.7038    -0.0131 H       
  31 H31           -1.9784    -4.1798    -0.0003 H       
  32 H32           -4.5557    -0.7679     0.0433 H       
  33 H33           -2.5987     0.7193     0.0420 H       
  34 H34           -5.8491    -2.1425     0.9389 H       
  35 H35           -5.8666    -2.1323    -0.8409 H       
  36 H36           -6.9154    -3.9351     2.1817 H       
  37 H37           -8.6684    -5.6643     2.1889 H       
  38 H38           -9.5662    -6.5163     0.0602 H       
  39 H39           -8.7115    -5.6384    -2.0757 H       
  40 H40           -6.9645    -3.9032    -2.0829 H       
@<TRIPOS>BOND
   1    1    2 1
   2    1    5 1
   3    2    3 2
   4    2   12 1
   5    3    4 1
   6    4    5 2
   7    5    7 1
   8    6    7 ar
   9    6   11 ar
  10    6   26 1
  11    7    8 ar
  12    8    9 ar
  13    8   27 1
  14    9   10 ar
  15    9   28 1
  16   10   11 ar
  17   10   29 1
  18   12   13 ar
  19   12   17 ar
  20   13   14 ar
  21   13   30 1
  22   14   15 ar
  23   14   31 1
  24   15   16 ar
  25   15   18 1
  26   16   17 ar
  27   16   32 1
  28   17   33 1
  29   18   19 1
  30   19   20 1
  31   19   34 1
  32   19   35 1
  33   20   21 ar
  34   20   25 ar
  35   21   22 ar
  36   21   36 1
  37   22   23 ar
  38   22   37 1
  39   23   24 ar
  40   23   38 1
  41   24   25 ar
  42   24   39 1
  43   25   40 1

#	End of record

