#	Name: ASD01882533
#	Creating user name:	WinNT
#	Creation time:	15. 06. 2019 19:44

#	Modifying user name:	WinNT
#	Modification time:	15. 06. 2019 19:44

#	Program:	/corina/corina34_cracker 3.40 0067  02.08.2006

@<TRIPOS>MOLECULE
ASD01882533
  57   61    0    0    0
SMALL
NO_CHARGES


@<TRIPOS>ATOM
   1 C1             1.5484     1.4579    -1.0838 C.2     
   2 C2             1.6032     0.0534    -1.1156 C.2     
   3 C3             1.2066    -0.6546    -0.0130 C.2     
   4 C4             0.7515     0.0354     1.1313 C.2     
   5 C5             0.7068     1.3821     1.1397 C.2     
   6 N6             1.1002     2.0975     0.0463 N.pl3   
   7 N7             1.6255     3.5578    -1.4478 N.2     
   8 N8             1.8579     2.4009    -1.9607 N.2     
   9 C9             1.1652     3.4314    -0.2310 C.2     
  10 C10            0.7792     4.5543     0.6970 C.3     
  11 C11            1.9967     4.9749     1.5226 C.3     
  12 C12            1.8405     6.1851     2.4457 C.3     
  13 C13            1.9253     4.7770     3.0380 C.3     
  14 Cl14           2.1662    -0.7725    -2.5350 Cl      
  15 N15            1.2514    -2.0467    -0.0204 N.pl3   
  16 C16            2.5313    -2.7602    -0.1465 C.3     
  17 C17            2.6246    -3.7953     0.9796 C.3     
  18 N18            1.4311    -4.6513     0.9536 N.3     
  19 C19            0.2121    -3.8741     1.2140 C.3     
  20 C20            0.0205    -2.8423     0.1037 C.3     
  21 C21            1.5599    -5.7632     1.9050 C.3     
  22 C22            0.2359    -6.4716     2.0320 C.ar    
  23 C23           -0.0657    -7.5285     1.1935 C.ar    
  24 C24           -1.2802    -8.1783     1.3100 C.ar    
  25 C25           -2.1930    -7.7715     2.2651 C.ar    
  26 C26           -1.8910    -6.7152     3.1042 C.ar    
  27 C27           -0.6747    -6.0682     2.9906 C.ar    
  28 C28           -2.8862    -6.2715     4.1452 C.3     
  29 F29           -4.0298    -7.0738     4.0689 F       
  30 F30           -2.3159    -6.3922     5.4169 F       
  31 F31           -3.2369    -4.9367     3.9161 F       
  32 C32           -1.6094    -9.3298     0.3952 C.3     
  33 F33           -1.1787   -10.5263     0.9783 F       
  34 F34           -2.9924    -9.3821     0.1905 F       
  35 F35           -0.9628    -9.1499    -0.8322 F       
  36 H36            0.4375    -0.5184     2.0037 H       
  37 H37            0.3563     1.9002     2.0201 H       
  38 H38            0.4257     5.4035     0.1123 H       
  39 H39           -0.0138     4.2175     1.3647 H       
  40 H40            2.9639     4.8309     1.0409 H       
  41 H41            2.7049     6.8370     2.5716 H       
  42 H42            0.8703     6.6815     2.4648 H       
  43 H43            1.0109     4.3470     3.4469 H       
  44 H44            2.8455     4.5025     3.5537 H       
  45 H45            2.5760    -3.2643    -1.1119 H       
  46 H46            3.3553    -2.0517    -0.0618 H       
  47 H47            3.5149    -4.4080     0.8376 H       
  48 H48            2.6843    -3.2834     1.9401 H       
  49 H49           -0.6473    -4.5440     1.2420 H       
  50 H50            0.3053    -3.3612     2.1713 H       
  51 H51           -0.8147    -2.1880     0.3537 H       
  52 H52           -0.1808    -3.3544    -0.8372 H       
  53 H53            2.3138    -6.4636     1.5455 H       
  54 H54            1.8593    -5.3753     2.8787 H       
  55 H55            0.6474    -7.8462     0.4473 H       
  56 H56           -3.1421    -8.2787     2.3556 H       
  57 H57           -0.4373    -5.2454     3.6486 H       
@<TRIPOS>BOND
   1    1    2 1
   2    1    6 1
   3    1    8 2
   4    2    3 2
   5    2   14 1
   6    3    4 1
   7    3   15 1
   8    4    5 2
   9    4   36 1
  10    5    6 1
  11    5   37 1
  12    6    9 1
  13    7    8 1
  14    7    9 2
  15    9   10 1
  16   10   11 1
  17   10   38 1
  18   10   39 1
  19   11   12 1
  20   11   13 1
  21   11   40 1
  22   12   13 1
  23   12   41 1
  24   12   42 1
  25   13   43 1
  26   13   44 1
  27   15   16 1
  28   15   20 1
  29   16   17 1
  30   16   45 1
  31   16   46 1
  32   17   18 1
  33   17   47 1
  34   17   48 1
  35   18   19 1
  36   18   21 1
  37   19   20 1
  38   19   49 1
  39   19   50 1
  40   20   51 1
  41   20   52 1
  42   21   22 1
  43   21   53 1
  44   21   54 1
  45   22   23 ar
  46   22   27 ar
  47   23   24 ar
  48   23   55 1
  49   24   25 ar
  50   24   32 1
  51   25   26 ar
  52   25   56 1
  53   26   27 ar
  54   26   28 1
  55   27   57 1
  56   28   29 1
  57   28   30 1
  58   28   31 1
  59   32   33 1
  60   32   34 1
  61   32   35 1

#	End of record

