#	Name: ASD03331712
#	Creating user name:	WinNT
#	Creation time:	15. 06. 2019 20:39

#	Modifying user name:	WinNT
#	Modification time:	15. 06. 2019 20:39

#	Program:	/corina/corina34_cracker 3.40 0067  02.08.2006

@<TRIPOS>MOLECULE
ASD03331712
  48   51    0    0    0
SMALL
NO_CHARGES


@<TRIPOS>ATOM
   1 C1             1.5816    -0.7095    -1.7922 C.ar    
   2 C2             0.5775     0.0552    -2.3708 C.ar    
   3 C3             0.6711     1.4322    -2.3352 C.ar    
   4 N4             1.6995     2.0258    -1.7600 N.ar    
   5 C5             2.6763     1.3318    -1.1978 C.ar    
   6 C6             2.6472    -0.0584    -1.1968 C.ar    
   7 N7             3.7438     2.0006    -0.6014 N.am    
   8 C8             3.8316     3.3427    -0.6886 C.2     
   9 N9             4.8048     3.9988    -0.0262 N.am    
  10 O10            3.0328     3.9615    -1.3647 O.2     
  11 C11            4.9557     5.3802    -0.1924 C.ar    
  12 C12            3.9821     7.5499    -0.5326 C.ar    
  13 C13            3.8372     6.1852    -0.3681 C.ar    
  14 C14            6.2215     5.9466    -0.1761 C.ar    
  15 C15            6.3666     7.3215    -0.3414 C.ar    
  16 C16            5.2388     8.1209    -0.5224 C.ar    
  17 C17            7.7176     7.9341    -0.3245 C.ar    
  18 N18            8.7864     7.1645    -0.1565 N.ar    
  19 C19            7.8528     9.3089    -0.4905 C.ar    
  20 C20            9.1198     9.8717    -0.4736 C.ar    
  21 C21           10.2115     9.0406    -0.2911 C.ar    
  22 C22           10.0077     7.6723    -0.1360 C.ar    
  23 N23           11.0992     6.8305     0.0424 N.3     
  24 C24           12.6177     5.4950    -1.2482 C.3     
  25 C25           12.0307     6.9211    -1.1021 C.3     
  26 C26           10.6671     5.4282     0.1862 C.3     
  27 C27           11.3871     4.6133    -0.9088 C.3     
  28 H28            1.5298    -1.7883    -1.8029 H       
  29 H29           -0.2678    -0.4222    -2.8441 H       
  30 H30           -0.1074     2.0311    -2.7842 H       
  31 H31            3.4454    -0.6221    -0.7370 H       
  32 H32            4.4237     1.5002    -0.1236 H       
  33 H33            5.4007     3.5136     0.5658 H       
  34 H34            3.1095     8.1715    -0.6692 H       
  35 H35            2.8517     5.7434    -0.3766 H       
  36 H36            7.0920     5.3232    -0.0352 H       
  37 H37            5.3483     9.1876    -0.6515 H       
  38 H38            6.9809     9.9305    -0.6313 H       
  39 H39            9.2522    10.9360    -0.6005 H       
  40 H40           11.2112     9.4489    -0.2732 H       
  41 H41           12.9575     5.3152    -2.2682 H       
  42 H42           13.4250     5.3300    -0.5346 H       
  43 H43           11.4936     7.2049    -2.0071 H       
  44 H44           12.8239     7.6380    -0.8900 H       
  45 H45           10.9458     5.0534     1.1710 H       
  46 H46            9.5877     5.3571     0.0518 H       
  47 H47           10.7471     4.4921    -1.7827 H       
  48 H48           11.7023     3.6438    -0.5231 H       
@<TRIPOS>BOND
   1    1    2 ar
   2    1    6 ar
   3    1   28 1
   4    2    3 ar
   5    2   29 1
   6    3    4 ar
   7    3   30 1
   8    4    5 ar
   9    5    6 ar
  10    5    7 1
  11    6   31 1
  12    7    8 am
  13    7   32 1
  14    8    9 am
  15    8   10 2
  16    9   11 1
  17    9   33 1
  18   11   14 ar
  19   11   13 ar
  20   12   13 ar
  21   12   16 ar
  22   12   34 1
  23   13   35 1
  24   14   15 ar
  25   14   36 1
  26   15   16 ar
  27   15   17 1
  28   16   37 1
  29   17   19 ar
  30   17   18 ar
  31   18   22 ar
  32   19   20 ar
  33   19   38 1
  34   20   21 ar
  35   20   39 1
  36   21   22 ar
  37   21   40 1
  38   22   23 1
  39   23   26 1
  40   23   25 1
  41   24   25 1
  42   24   27 1
  43   24   41 1
  44   24   42 1
  45   25   43 1
  46   25   44 1
  47   26   27 1
  48   26   45 1
  49   26   46 1
  50   27   47 1
  51   27   48 1

#	End of record

