#	Name: ASD02038618
#	Creating user name:	WinNT
#	Creation time:	15. 06. 2019 20:17

#	Modifying user name:	WinNT
#	Modification time:	15. 06. 2019 20:17

#	Program:	/corina/corina34_cracker 3.40 0067  02.08.2006

@<TRIPOS>MOLECULE
ASD02038618
  59   60    0    0    0
SMALL
NO_CHARGES


@<TRIPOS>ATOM
   1 C1             1.1473     0.8562     1.0454 C.ar    
   2 C2             1.0906    -0.5226     0.9303 C.ar    
   3 C3            -0.1045    -1.1422     0.6158 C.ar    
   4 C4            -1.2480    -0.3803     0.4155 C.ar    
   5 C5            -1.1876     1.0027     0.5317 C.ar    
   6 C6             0.0075     1.6165     0.8512 C.ar    
   7 N7            -2.4574    -1.0037     0.0971 N.pl3   
   8 C8            -3.6631    -0.1988    -0.1140 C.3     
   9 C9            -4.8390    -1.1193    -0.4471 C.3     
  10 N10           -4.9860    -2.1281     0.6106 N.3     
  11 C11           -5.1264    -1.4932     1.9278 C.3     
  12 C12           -5.3888    -2.5667     2.9860 C.3     
  13 O13           -4.2453    -3.4167     3.0960 O.3     
  14 C14           -4.3145    -4.4309     3.9994 C.ar    
  15 Cl15           2.6492     1.6317     1.4409 Cl      
  16 C16           -3.2397    -5.2933     4.1569 C.ar    
  17 C17           -5.4576    -4.5988     4.7668 C.ar    
  18 C18           -5.5285    -5.6281     5.6848 C.ar    
  19 C19           -4.4552    -6.4954     5.8391 C.ar    
  20 C20           -3.3091    -6.3235     5.0742 C.ar    
  21 N21           -4.5261    -7.5387     6.7691 N.am    
  22 S22           -5.4561    -8.8711     6.4494 S.o2    
  23 O23           -5.2804    -9.7026     7.5882 O.2     
  24 Cl24           2.5212    -1.4736     1.1805 Cl      
  25 O25           -6.7317    -8.3377     6.1216 O.2     
  26 C26           -4.6853    -9.6211     4.9886 C.3     
  27 C27           -6.1224    -0.2921    -0.5448 C.3     
  28 C28           -7.2811    -1.1966    -0.9694 C.3     
  29 C29           -8.5340    -0.3481    -1.1958 C.3     
  30 C30           -9.6926    -1.2527    -1.6204 C.3     
  31 H31           -0.1487    -2.2175     0.5257 H       
  32 H32           -2.0757     1.5973     0.3760 H       
  33 H33            0.0544     2.6916     0.9419 H       
  34 H34           -2.4986    -1.9694     0.0158 H       
  35 H35           -3.8875     0.3640     0.7921 H       
  36 H36           -3.4981     0.4931    -0.9400 H       
  37 H37           -4.6534    -1.6158    -1.3995 H       
  38 H38           -5.7644    -2.7412     0.4199 H       
  39 H39           -4.2090    -0.9580     2.1729 H       
  40 H40           -5.9611    -0.7925     1.9063 H       
  41 H41           -5.5809    -2.0900     3.9472 H       
  42 H42           -6.2557    -3.1597     2.6948 H       
  43 H43           -2.3484    -5.1594     3.5619 H       
  44 H44           -6.2924    -3.9241     4.6466 H       
  45 H45           -6.4185    -5.7583     6.2827 H       
  46 H46           -2.4738    -6.9976     5.1936 H       
  47 H47           -4.0306    -7.4814     7.6010 H       
  48 H48           -3.6304    -9.8078     5.1899 H       
  49 H49           -5.1834   -10.5628     4.7580 H       
  50 H50           -4.7788    -8.9434     4.1400 H       
  51 H51           -6.3441     0.1507     0.4262 H       
  52 H52           -5.9896     0.4988    -1.2830 H       
  53 H53           -7.0196    -1.7123    -1.8934 H       
  54 H54           -7.4754    -1.9298    -0.1866 H       
  55 H55           -8.7954     0.1676    -0.2718 H       
  56 H56           -8.3397     0.3850    -1.9786 H       
  57 H57          -10.5852    -0.6482    -1.7817 H       
  58 H58           -9.4312    -1.7684    -2.5444 H       
  59 H59           -9.8869    -1.9859    -0.8376 H       
@<TRIPOS>BOND
   1    1    2 ar
   2    1   15 1
   3    1    6 ar
   4    2    3 ar
   5    2   24 1
   6    3    4 ar
   7    3   31 1
   8    4    5 ar
   9    4    7 1
  10    5    6 ar
  11    5   32 1
  12    6   33 1
  13    7    8 1
  14    7   34 1
  15    8    9 1
  16    8   35 1
  17    8   36 1
  18    9   10 1
  19    9   27 1
  20    9   37 1
  21   10   11 1
  22   10   38 1
  23   11   12 1
  24   11   39 1
  25   11   40 1
  26   12   13 1
  27   12   41 1
  28   12   42 1
  29   13   14 1
  30   14   16 ar
  31   14   17 ar
  32   16   20 ar
  33   16   43 1
  34   17   18 ar
  35   17   44 1
  36   18   19 ar
  37   18   45 1
  38   19   20 ar
  39   19   21 1
  40   20   46 1
  41   21   22 am
  42   21   47 1
  43   22   23 2
  44   22   25 2
  45   22   26 1
  46   26   48 1
  47   26   49 1
  48   26   50 1
  49   27   28 1
  50   27   51 1
  51   27   52 1
  52   28   29 1
  53   28   53 1
  54   28   54 1
  55   29   30 1
  56   29   55 1
  57   29   56 1
  58   30   57 1
  59   30   58 1
  60   30   59 1

#	End of record

