#	Name: ASD08150743
#	Creating user name:	WinNT
#	Creation time:	15. 06. 2019 21:16

#	Modifying user name:	WinNT
#	Modification time:	15. 06. 2019 21:16

#	Program:	/corina/corina34_cracker 3.40 0067  02.08.2006

@<TRIPOS>MOLECULE
ASD08150743
  28   29    0    0    0
SMALL
NO_CHARGES


@<TRIPOS>ATOM
   1 C1            -0.0193     1.4661     0.0389 C.2     
   2 C2            -0.0024    -0.0065     0.0445 C.ar    
   3 C3            -0.0062    -0.7090     1.2607 C.ar    
   4 C4             0.0100    -2.0972     1.2526 C.ar    
   5 C5             0.0297    -2.7833     0.0545 C.ar    
   6 C6             0.0336    -2.0968    -1.1476 C.ar    
   7 C7             0.0119    -0.7156    -1.1620 C.ar    
   8 O8             1.0269     2.0863     0.0469 O.2     
   9 N9            -1.1941     2.1264     0.0193 N.am    
  10 F10            0.0096    -0.0508    -2.3381 F       
  11 C11           -1.2148     3.5207     0.1326 C.ar    
  12 C12           -2.1872     4.2593    -0.5320 C.ar    
  13 C13           -2.2046     5.6362    -0.4172 C.ar    
  14 C14           -1.2560     6.2790     0.3572 C.ar    
  15 C15           -0.2876     5.5469     1.0188 C.ar    
  16 C16           -0.2679     4.1694     0.9134 C.ar    
  17 Cl17          -3.3774     3.4529    -1.5050 Cl      
  18 N18           -0.0255    -0.0183     2.4655 N.pl3   
  19 H19            0.0075    -2.6416     2.1854 H       
  20 H20            0.0426    -3.8632     0.0552 H       
  21 H21            0.0491    -2.6437    -2.0788 H       
  22 H22           -2.0252     1.6349    -0.0734 H       
  23 H23           -2.9596     6.2110    -0.9330 H       
  24 H24           -1.2715     7.3553     0.4450 H       
  25 H25            0.4521     6.0521     1.6221 H       
  26 H26            0.4860     3.5982     1.4346 H       
  27 H27           -0.0365     0.9516     2.4684 H       
  28 H28           -0.0281    -0.5059     3.3041 H       
@<TRIPOS>BOND
   1    1    2 1
   2    1    8 2
   3    1    9 am
   4    2    3 ar
   5    2    7 ar
   6    3    4 ar
   7    3   18 1
   8    4    5 ar
   9    4   19 1
  10    5    6 ar
  11    5   20 1
  12    6    7 ar
  13    6   21 1
  14    7   10 1
  15    9   11 1
  16    9   22 1
  17   11   12 ar
  18   11   16 ar
  19   12   13 ar
  20   12   17 1
  21   13   14 ar
  22   13   23 1
  23   14   15 ar
  24   14   24 1
  25   15   16 ar
  26   15   25 1
  27   16   26 1
  28   18   27 1
  29   18   28 1

#	End of record

