#	Name: ASD01913069
#	Creating user name:	WinNT
#	Creation time:	15. 06. 2019 20:00

#	Modifying user name:	WinNT
#	Modification time:	15. 06. 2019 20:00

#	Program:	/corina/corina34_cracker 3.40 0067  02.08.2006

@<TRIPOS>MOLECULE
ASD01913069
  35   36    0    0    0
SMALL
NO_CHARGES


@<TRIPOS>ATOM
   1 C1            -0.0169     1.3943     0.0097 C.ar    
   2 C2             0.0021    -0.0041     0.0020 C.ar    
   3 C3            -1.2600    -0.7609     0.0095 C.2     
   4 C4            -1.2351    -2.2677     0.0012 C.3     
   5 O5            -2.3200    -0.1722     0.0224 O.2     
   6 C6            -2.6473    -2.7935     0.0113 C.2     
   7 C7            -2.8927    -4.2470     0.0057 C.ar    
   8 O8            -3.5816    -2.0212     0.0240 O.2     
   9 C9            -4.2026    -4.7354     0.0151 C.ar    
  10 C10            1.2266    -0.6795    -0.0133 C.ar    
  11 C11            2.4048     0.0368    -0.0207 C.ar    
  12 C12            2.3777     1.4206    -0.0130 C.ar    
  13 C13            1.1699     2.0963     0.0021 C.ar    
  14 C14           -4.4308    -6.0940     0.0094 C.ar    
  15 C15           -3.3545    -6.9831    -0.0057 C.ar    
  16 C16           -2.0460    -6.4965    -0.0151 C.ar    
  17 C17           -1.8156    -5.1382    -0.0148 C.ar    
  18 C18           -3.6007    -8.4421    -0.0113 C.2     
  19 O19           -4.7388    -8.8658    -0.0028 O.2     
  20 O20           -2.5627    -9.3002    -0.0259 O.3     
  21 C21           -2.8790   -10.7173    -0.0306 C.3     
  22 H22           -0.9586     1.9230     0.0171 H       
  23 H23           -0.7235    -2.6177    -0.8954 H       
  24 H24           -0.7072    -2.6272     0.8844 H       
  25 H25           -5.0354    -4.0478     0.0272 H       
  26 H26            1.2494    -1.7592    -0.0190 H       
  27 H27            3.3512    -0.4833    -0.0322 H       
  28 H28            3.3039     1.9760    -0.0189 H       
  29 H29            1.1569     3.1762     0.0084 H       
  30 H30           -5.4427    -6.4715     0.0170 H       
  31 H31           -1.2140    -7.1851    -0.0268 H       
  32 H32           -0.8033    -4.7619    -0.0224 H       
  33 H33           -3.4511   -10.9649     0.8635 H       
  34 H34           -3.4681   -10.9552    -0.9163 H       
  35 H35           -1.9552   -11.2957    -0.0426 H       
@<TRIPOS>BOND
   1    1    2 ar
   2    1   13 ar
   3    1   22 1
   4    2    3 1
   5    2   10 ar
   6    3    4 1
   7    3    5 2
   8    4    6 1
   9    4   23 1
  10    4   24 1
  11    6    7 1
  12    6    8 2
  13    7    9 ar
  14    7   17 ar
  15    9   14 ar
  16    9   25 1
  17   10   11 ar
  18   10   26 1
  19   11   12 ar
  20   11   27 1
  21   12   13 ar
  22   12   28 1
  23   13   29 1
  24   14   15 ar
  25   14   30 1
  26   15   16 ar
  27   15   18 1
  28   16   17 ar
  29   16   31 1
  30   17   32 1
  31   18   19 2
  32   18   20 1
  33   20   21 1
  34   21   33 1
  35   21   34 1
  36   21   35 1

#	End of record

