#	Name: ASD00311462
#	Creating user name:	WinNT
#	Creation time:	15. 06. 2019 18:34

#	Modifying user name:	WinNT
#	Modification time:	15. 06. 2019 18:34

#	Program:	/corina/corina34_cracker 3.40 0067  02.08.2006

@<TRIPOS>MOLECULE
ASD00311462
  47   51    0    0    0
SMALL
NO_CHARGES


@<TRIPOS>ATOM
   1 C1            -0.0167     1.3777     0.0096 C.2     
   2 C2             0.0021    -0.0041     0.0020 C.2     
   3 C3             1.2588    -0.6767    -0.0139 C.2     
   4 C4             2.4315     0.0672    -0.0214 C.2     
   5 C5             2.3574     1.4751    -0.0131 C.2     
   6 N6             1.1648     2.0902     0.0022 N.am    
   7 C7            -1.3432    -0.5752     0.0126 C.2     
   8 C8            -2.3228     0.3262     0.0274 C.2     
   9 S9            -1.6792     1.9562     0.0358 S.3     
  10 O10            3.3822     2.1373    -0.0196 O.2     
  11 C11            3.7477    -0.6120    -0.0375 C.ar    
  12 C12            4.5931    -0.4746    -1.1382 C.ar    
  13 C13            5.8180    -1.1099    -1.1473 C.ar    
  14 C14            6.2078    -1.8823    -0.0677 C.ar    
  15 C15            5.3735    -2.0224     1.0270 C.ar    
  16 C16            4.1489    -1.3870     1.0505 C.ar    
  17 O17            1.3087    -2.0292    -0.0212 O.3     
  18 C18           -2.0687    -4.7663    -0.0044 C.ar    
  19 C19           -2.7050    -3.9524     0.9325 C.ar    
  20 C20           -2.4704    -2.5954     0.9385 C.ar    
  21 C21           -1.5956    -2.0347     0.0069 C.ar    
  22 C22           -0.9591    -2.8494    -0.9304 C.ar    
  23 C23           -1.1944    -4.2063    -0.9356 C.ar    
  24 C24           -2.3174    -6.2284    -0.0068 C.ar    
  25 C25           -1.6832    -7.0416    -0.9410 C.ar    
  26 C26           -1.9217    -8.4151    -0.9367 C.ar    
  27 C27           -2.7951    -8.9657     0.0047 C.ar    
  28 C28           -3.4205    -8.1521     0.9276 C.ar    
  29 C29           -3.1829    -6.7912     0.9309 C.ar    
  30 C30           -1.2736    -9.2594    -1.8948 C.1     
  31 N31           -0.7595    -9.9291    -2.6548 N.1     
  32 H32            1.1326     3.0597     0.0077 H       
  33 H33           -3.3754     0.0847     0.0362 H       
  34 H34            4.2896     0.1275    -1.9818 H       
  35 H35            6.4735    -1.0043    -1.9990 H       
  36 H36            7.1671    -2.3782    -0.0797 H       
  37 H37            5.6832    -2.6270     1.8666 H       
  38 H38            3.5006    -1.4932     1.9077 H       
  39 H39            2.2059    -2.3896    -0.0320 H       
  40 H40           -3.3820    -4.3865     1.6534 H       
  41 H41           -2.9637    -1.9652     1.6636 H       
  42 H42           -0.2820    -2.4159    -1.6515 H       
  43 H43           -0.7015    -4.8370    -1.6607 H       
  44 H44           -1.0093    -6.6105    -1.6666 H       
  45 H45           -2.9814   -10.0295     0.0099 H       
  46 H46           -4.0955    -8.5818     1.6530 H       
  47 H47           -3.6721    -6.1608     1.6587 H       
@<TRIPOS>BOND
   1    1    2 2
   2    1    6 1
   3    1    9 1
   4    2    3 1
   5    2    7 1
   6    3    4 2
   7    3   17 1
   8    4    5 1
   9    4   11 1
  10    5    6 am
  11    5   10 2
  12    6   32 1
  13    7    8 2
  14    7   21 1
  15    8    9 1
  16    8   33 1
  17   11   12 ar
  18   11   16 ar
  19   12   13 ar
  20   12   34 1
  21   13   14 ar
  22   13   35 1
  23   14   15 ar
  24   14   36 1
  25   15   16 ar
  26   15   37 1
  27   16   38 1
  28   17   39 1
  29   18   19 ar
  30   18   23 ar
  31   18   24 1
  32   19   20 ar
  33   19   40 1
  34   20   21 ar
  35   20   41 1
  36   21   22 ar
  37   22   23 ar
  38   22   42 1
  39   23   43 1
  40   24   25 ar
  41   24   29 ar
  42   25   26 ar
  43   25   44 1
  44   26   27 ar
  45   26   30 1
  46   27   28 ar
  47   27   45 1
  48   28   29 ar
  49   28   46 1
  50   29   47 1
  51   30   31 3

#	End of record

