#	Name: ASD01230028
#	Creating user name:	WinNT
#	Creation time:	15. 06. 2019 19:11

#	Modifying user name:	WinNT
#	Modification time:	15. 06. 2019 19:11

#	Program:	/corina/corina34_cracker 3.40 0067  02.08.2006

@<TRIPOS>MOLECULE
ASD01230028
  42   44    0    0    0
SMALL
NO_CHARGES


@<TRIPOS>ATOM
   1 C1            -1.6010     1.7640     0.9169 C.3     
   2 C2            -1.7334     0.2657     1.1970 C.3     
   3 C3            -3.1966    -0.0707     1.4914 C.3     
   4 S4            -1.1773    -0.6719    -0.2529 S.o2    
   5 O5            -2.0668    -0.4772    -1.3439 O.2     
   6 O6             0.2278    -0.5430    -0.4212 O.2     
   7 N7            -1.3938    -2.2576     0.1725 N.am    
   8 C8            -1.5149    -3.4666     2.3310 C.3     
   9 C9            -0.6001    -2.8399     1.2576 C.3     
  10 C10            0.2049    -4.0574     0.7561 C.3     
  11 C11            0.2201    -5.0281     1.9177 C.ar    
  12 C12            1.0342    -6.1193     2.1604 C.ar    
  13 C13            0.8610    -6.8770     3.3152 C.ar    
  14 C14           -0.1366    -6.5307     4.2244 C.ar    
  15 C15           -0.9439    -5.4414     3.9742 C.ar    
  16 C16           -0.7687    -4.6885     2.8236 C.ar    
  17 C17            2.7329    -8.4010     2.6724 C.ar    
  18 C18            1.7340    -8.0482     3.5764 C.ar    
  19 C19            1.5666    -8.8139     4.7340 C.ar    
  20 C20            2.4055    -9.8956     4.9328 C.ar    
  21 C21            3.3764   -10.1831     3.9863 C.ar    
  22 N22            3.5097    -9.4402     2.9022 N.ar    
  23 F23            4.1988   -11.2381     4.1755 F       
  24 H24           -1.9352     2.3274     1.7881 H       
  25 H25           -0.5586     2.0037     0.7071 H       
  26 H26           -2.2149     2.0283     0.0559 H       
  27 H27           -1.1195     0.0014     2.0580 H       
  28 H28           -3.3041    -1.1485     1.6139 H       
  29 H29           -3.5078     0.4318     2.4072 H       
  30 H30           -3.8204     0.2648     0.6629 H       
  31 H31           -2.0462    -2.8009    -0.2967 H       
  32 H32           -1.6731    -2.7646     3.1498 H       
  33 H33           -2.4690    -3.7577     1.8917 H       
  34 H34            0.0606    -2.0938     1.6992 H       
  35 H35           -0.2874    -4.5071    -0.1062 H       
  36 H36            1.2213    -3.7590     0.4992 H       
  37 H37            1.8061    -6.3839     1.4528 H       
  38 H38           -0.2772    -7.1141     5.1224 H       
  39 H39           -1.7170    -5.1730     4.6790 H       
  40 H40            2.8692    -7.8200     1.7723 H       
  41 H41            0.8017    -8.5668     5.4552 H       
  42 H42            2.3053   -10.5092     5.8159 H       
@<TRIPOS>BOND
   1    1    2 1
   2    1   24 1
   3    1   25 1
   4    1   26 1
   5    2    3 1
   6    2    4 1
   7    2   27 1
   8    3   28 1
   9    3   29 1
  10    3   30 1
  11    4    5 2
  12    4    6 2
  13    4    7 am
  14    7    9 1
  15    7   31 1
  16    8    9 1
  17    8   16 1
  18    8   32 1
  19    8   33 1
  20    9   10 1
  21    9   34 1
  22   10   11 1
  23   10   35 1
  24   10   36 1
  25   11   12 ar
  26   11   16 ar
  27   12   13 ar
  28   12   37 1
  29   13   14 ar
  30   13   18 1
  31   14   15 ar
  32   14   38 1
  33   15   16 ar
  34   15   39 1
  35   17   18 ar
  36   17   22 ar
  37   17   40 1
  38   18   19 ar
  39   19   20 ar
  40   19   41 1
  41   20   21 ar
  42   20   42 1
  43   21   22 ar
  44   21   23 1

#	End of record

