#	Name: ASD01911188
#	Creating user name:	WinNT
#	Creation time:	15. 06. 2019 19:57

#	Modifying user name:	WinNT
#	Modification time:	15. 06. 2019 19:57

#	Program:	/corina/corina34_cracker 3.40 0067  02.08.2006

@<TRIPOS>MOLECULE
ASD01911188
  42   45    0    0    0
SMALL
NO_CHARGES


@<TRIPOS>ATOM
   1 C1             0.9241     0.7439     0.1939 C.ar    
   2 N2             0.6916    -0.5473     0.1049 N.ar    
   3 C3             1.4828    -1.3506    -0.5960 C.ar    
   4 C4             2.5944    -0.8429    -1.2643 C.ar    
   5 C5             2.8639     0.5147    -1.1880 C.ar    
   6 C6             2.0118     1.3171    -0.4458 C.ar    
   7 C7             1.1810    -2.7991    -0.6675 C.2     
   8 N8             0.1071    -3.2964    -0.0227 N.am    
   9 C9            -0.2324    -4.6455    -0.1668 C.ar    
  10 C10           -1.5559    -5.0470    -0.0420 C.ar    
  11 C11           -1.8884    -6.3799    -0.1853 C.ar    
  12 C12           -0.9043    -7.3147    -0.4530 C.ar    
  13 C13            0.4155    -6.9175    -0.5775 C.ar    
  14 C14            0.7529    -5.5856    -0.4409 C.ar    
  15 C15           -2.6284    -4.0294     0.2502 C.3     
  16 N16           -3.0214    -3.3632    -0.9940 N.am    
  17 C17           -3.9222    -3.8502    -1.8664 C.2     
  18 C18           -4.0500    -2.9001    -2.9909 C.ar    
  19 C19           -3.1647    -1.8410    -2.7035 C.ar    
  20 C20           -2.5332    -2.1813    -1.4116 C.2     
  21 O21           -1.7064    -1.5099    -0.8280 O.2     
  22 O22           -4.5287    -4.8960    -1.7496 O.2     
  23 O23            1.9019    -3.5391    -1.3077 O.2     
  24 Br24          -1.3633    -9.1387    -0.6486 Br      
  25 C25           -4.8061    -2.8713    -4.1518 C.ar    
  26 C26           -4.6866    -1.7996    -5.0240 C.ar    
  27 C27           -3.8169    -0.7592    -4.7417 C.ar    
  28 C28           -3.0548    -0.7759    -3.5830 C.ar    
  29 Cl29          -5.6325    -1.7622    -6.4792 Cl      
  30 Cl30          -3.6802     0.5742    -5.8449 Cl      
  31 H31            0.2557     1.3670     0.7696 H       
  32 H32            3.2375    -1.4978    -1.8335 H       
  33 H33            3.7185     0.9375    -1.6952 H       
  34 H34            2.1936     2.3788    -0.3667 H       
  35 H35           -0.4304    -2.7186     0.5414 H       
  36 H36           -2.9175    -6.6928    -0.0879 H       
  37 H37            1.1818    -7.6495    -0.7858 H       
  38 H38            1.7830    -5.2761    -0.5385 H       
  39 H39           -3.4946    -4.5288     0.6842 H       
  40 H40           -2.2456    -3.2896     0.9531 H       
  41 H41           -5.4854    -3.6803    -4.3766 H       
  42 H42           -2.3782     0.0379    -3.3672 H       
@<TRIPOS>BOND
   1    1    2 ar
   2    1    6 ar
   3    1   31 1
   4    2    3 ar
   5    3    4 ar
   6    3    7 1
   7    4    5 ar
   8    4   32 1
   9    5    6 ar
  10    5   33 1
  11    6   34 1
  12    7    8 am
  13    7   23 2
  14    8    9 1
  15    8   35 1
  16    9   10 ar
  17    9   14 ar
  18   10   11 ar
  19   10   15 1
  20   11   12 ar
  21   11   36 1
  22   12   13 ar
  23   12   24 1
  24   13   14 ar
  25   13   37 1
  26   14   38 1
  27   15   16 1
  28   15   39 1
  29   15   40 1
  30   16   17 am
  31   16   20 am
  32   17   18 1
  33   17   22 2
  34   18   19 ar
  35   18   25 ar
  36   19   20 1
  37   19   28 ar
  38   20   21 2
  39   25   26 ar
  40   25   41 1
  41   26   27 ar
  42   26   29 1
  43   27   28 ar
  44   27   30 1
  45   28   42 1

#	End of record

