#	Name: ASD01913094
#	Creating user name:	WinNT
#	Creation time:	15. 06. 2019 20:00

#	Modifying user name:	WinNT
#	Modification time:	15. 06. 2019 20:00

#	Program:	/corina/corina34_cracker 3.40 0067  02.08.2006

@<TRIPOS>MOLECULE
ASD01913094
  29   30    0    0    0
SMALL
NO_CHARGES


@<TRIPOS>ATOM
   1 C1             0.3101     0.9238     0.3122 C.ar    
   2 C2             0.5100    -0.4515     0.2865 C.ar    
   3 C3             1.7934    -0.9687     0.1547 C.ar    
   4 C4             2.8724    -0.1198     0.0494 C.ar    
   5 C5             2.6757     1.2636     0.0748 C.ar    
   6 C6             1.3837     1.7796     0.2071 C.ar    
   7 N7             3.6375     3.5108    -0.0125 N.am    
   8 C8             3.8292     2.1770    -0.0372 C.2     
   9 O9             4.9527     1.7264    -0.1518 O.2     
  10 O10           -0.5507    -1.2916     0.3908 O.3     
  11 C11            4.7329     4.3724    -0.0095 C.ar    
  12 N12            5.9573     3.8756     0.0666 N.ar    
  13 C13            7.0216     4.6553     0.0720 C.ar    
  14 C14            6.8935     6.0291    -0.0024 C.ar    
  15 C15            5.6250     6.5901    -0.0837 C.ar    
  16 C16            4.5294     5.7454    -0.0924 C.ar    
  17 Cl17           8.3024     7.0433     0.0061 Cl      
  18 C18           -0.2741    -2.6931     0.3573 C.3     
  19 F19            0.5751    -3.0264     1.4180 F       
  20 F20           -1.4709    -3.4077     0.4759 F       
  21 F21            0.3445    -3.0175    -0.8549 F       
  22 H22           -0.6892     1.3217     0.4102 H       
  23 H23            1.9446    -2.0379     0.1352 H       
  24 H24            3.8694    -0.5225    -0.0523 H       
  25 H25            1.2275     2.8480     0.2267 H       
  26 H26            2.7370     3.8712     0.0032 H       
  27 H27            8.0054     4.2142     0.1357 H       
  28 H28            5.4974     7.6609    -0.1428 H       
  29 H29            3.5289     6.1475    -0.1546 H       
@<TRIPOS>BOND
   1    1    2 ar
   2    1    6 ar
   3    1   22 1
   4    2    3 ar
   5    2   10 1
   6    3    4 ar
   7    3   23 1
   8    4    5 ar
   9    4   24 1
  10    5    6 ar
  11    5    8 1
  12    6   25 1
  13    7    8 am
  14    7   11 1
  15    7   26 1
  16    8    9 2
  17   10   18 1
  18   11   12 ar
  19   11   16 ar
  20   12   13 ar
  21   13   14 ar
  22   13   27 1
  23   14   15 ar
  24   14   17 1
  25   15   16 ar
  26   15   28 1
  27   16   29 1
  28   18   19 1
  29   18   20 1
  30   18   21 1

#	End of record

