#	Name: ASD01918471
#	Creating user name:	WinNT
#	Creation time:	15. 06. 2019 20:11

#	Modifying user name:	WinNT
#	Modification time:	15. 06. 2019 20:11

#	Program:	/corina/corina34_cracker 3.40 0067  02.08.2006

@<TRIPOS>MOLECULE
ASD01918471
  43   45    0    0    0
SMALL
NO_CHARGES


@<TRIPOS>ATOM
   1 C1            -0.0176     1.4478     0.0100 C.3     
   2 O2             0.0021    -0.0041     0.0020 O.3     
   3 C3             0.6200    -0.6127     1.0318 C.2     
   4 O4             1.1289     0.0513     1.9131 O.2     
   5 N5             0.6741    -1.9583     1.0852 N.am    
   6 C6             0.1088    -2.8772     0.0884 C.3     
   7 C7             0.3614    -4.3152     0.5807 C.3     
   8 C8             1.7361    -4.7811     0.0500 C.3     
   9 C9             2.3206    -5.6560     1.1748 C.3     
  10 C10            1.6286    -5.2219     2.4766 C.3     
  11 O11            0.9511    -6.3356     3.0620 O.3     
  12 C12            2.6252    -4.6897     3.4202 C.1     
  13 C13            3.4200    -4.2653     4.1728 C.1     
  14 C14            4.3894    -3.7476     5.0908 C.ar    
  15 C15            5.7363    -3.6935     4.7308 C.ar    
  16 C16            6.6654    -3.1930     5.6198 C.ar    
  17 C17            6.2641    -2.7460     6.8658 C.ar    
  18 C18            4.9299    -2.7969     7.2290 C.ar    
  19 C19            4.5014    -2.3072     8.5883 C.3     
  20 C20            3.9903    -3.2896     6.3472 C.ar    
  21 C21            0.6145    -4.1273     2.1090 C.3     
  22 C22            1.3154    -2.7494     2.1493 C.3     
  23 H23            1.0050     1.8251     0.0023 H       
  24 H24           -0.5448     1.8089    -0.8731 H       
  25 H25           -0.5278     1.7993     0.9068 H       
  26 H26           -0.9627    -2.7029    -0.0089 H       
  27 H27            0.5978    -2.7249    -0.8738 H       
  28 H28           -0.4565    -4.9993     0.3547 H       
  29 H29            1.6119    -5.3674    -0.8604 H       
  30 H30            2.3811    -3.9224    -0.1362 H       
  31 H31            2.1140    -6.7075     0.9752 H       
  32 H32            3.3958    -5.4949     1.2522 H       
  33 H33            1.5347    -7.0672     3.3055 H       
  34 H34            6.0510    -4.0429     3.7585 H       
  35 H35            7.7083    -3.1506     5.3424 H       
  36 H36            6.9953    -2.3558     7.5582 H       
  37 H37            4.2577    -1.2463     8.5320 H       
  38 H38            3.6239    -2.8648     8.9153 H       
  39 H39            5.3129    -2.4563     9.3005 H       
  40 H40            2.9486    -3.3250     6.6303 H       
  41 H41           -0.2970    -4.1751     2.7047 H       
  42 H42            2.3811    -2.8590     1.9484 H       
  43 H43            1.1598    -2.2752     3.1183 H       
@<TRIPOS>BOND
   1    1    2 1
   2    1   23 1
   3    1   24 1
   4    1   25 1
   5    2    3 1
   6    3    4 2
   7    3    5 am
   8    5   22 1
   9    5    6 1
  10    6    7 1
  11    6   26 1
  12    6   27 1
  13    7   21 1
  14    7    8 1
  15    7   28 1
  16    8    9 1
  17    8   29 1
  18    8   30 1
  19    9   10 1
  20    9   31 1
  21    9   32 1
  22   10   11 1
  23   10   12 1
  24   10   21 1
  25   11   33 1
  26   12   13 3
  27   13   14 1
  28   14   20 ar
  29   14   15 ar
  30   15   16 ar
  31   15   34 1
  32   16   17 ar
  33   16   35 1
  34   17   18 ar
  35   17   36 1
  36   18   19 1
  37   18   20 ar
  38   19   37 1
  39   19   38 1
  40   19   39 1
  41   20   40 1
  42   21   22 1
  43   21   41 1
  44   22   42 1
  45   22   43 1

#	End of record

