#	Name: ASD03730849
#	Creating user name:	WinNT
#	Creation time:	15. 06. 2019 20:44

#	Modifying user name:	WinNT
#	Modification time:	15. 06. 2019 20:44

#	Program:	/corina/corina34_cracker 3.40 0067  02.08.2006

@<TRIPOS>MOLECULE
ASD03730849
  62   68    0    0    0
SMALL
NO_CHARGES


@<TRIPOS>ATOM
   1 C1             1.2486    -1.2458    -2.6179 C.2     
   2 C2             0.6775    -1.4894    -1.2764 C.ar    
   3 C3             1.4489    -1.2644    -0.1347 C.ar    
   4 C4             0.9099    -1.4937     1.1141 C.ar    
   5 C5            -0.3921    -1.9462     1.2368 C.ar    
   6 C6            -1.1617    -2.1716     0.1095 C.ar    
   7 C7            -0.6370    -1.9398    -1.1454 C.ar    
   8 O8             2.3623    -0.7710    -2.7273 O.2     
   9 N9             0.5367    -1.5554    -3.7196 N.am    
  10 C10            2.8672    -0.7726    -0.2664 C.3     
  11 O11            1.5848    -3.3530     6.3206 O.3     
  12 C12            1.8440    -3.4320     7.7347 C.3     
  13 O13            3.2791    -3.3584     7.8242 O.3     
  14 C14            3.6792    -2.6612     6.7202 C.ar    
  15 C15            2.6373    -2.6591     5.7956 C.ar    
  16 C16            4.8672    -2.0168     6.4251 C.ar    
  17 C17            5.0320    -1.3652     5.2065 C.ar    
  18 C18            3.9870    -1.3770     4.2876 C.ar    
  19 C19            2.7991    -2.0134     4.5814 C.ar    
  20 O20            6.1008    -0.6646     4.7301 O.3     
  21 C21            4.4721    -0.6257     3.0768 C.3     
  22 C22            5.9883    -0.5410     3.2992 C.3     
  23 N23            3.4038    -0.4678     1.0623 N.am    
  24 C24            4.1327    -1.3323     1.7960 C.2     
  25 C25            3.8470     0.7327     2.9594 C.ar    
  26 C26            3.7993     1.8327     3.7864 C.ar    
  27 C27            3.1257     2.9726     3.3851 C.ar    
  28 C28            2.4999     3.0042     2.1521 C.ar    
  29 C29            2.5440     1.9046     1.3207 C.ar    
  30 C30            3.2202     0.7530     1.7162 C.ar    
  31 O31            4.4522    -2.4596     1.4829 O.2     
  32 C32            1.0599    -1.2866    -4.9889 C.ar    
  33 C33            0.3921    -1.7272    -6.1244 C.ar    
  34 C34            0.9106    -1.4602    -7.3760 C.ar    
  35 C35            2.0946    -0.7541    -7.4998 C.ar    
  36 C36            2.7618    -0.3140    -6.3703 C.ar    
  37 C37            2.2449    -0.5739    -5.1161 C.ar    
  38 C38           -0.8968    -2.4965    -5.9904 C.3     
  39 F39           -1.3760    -2.8286    -7.2621 F       
  40 F40           -0.6677    -3.6663    -5.2582 F       
  41 F41           -1.8432    -1.7086    -5.3265 F       
  42 Cl42           2.7439    -0.4206    -9.0748 Cl      
  43 H43            1.5055    -1.3201     1.9982 H       
  44 H44           -0.8092    -2.1246     2.2169 H       
  45 H45           -2.1769    -2.5254     0.2121 H       
  46 H46           -1.2405    -2.1112    -2.0245 H       
  47 H47           -0.3385    -1.9645    -3.6325 H       
  48 H48            3.4772    -1.5442    -0.7362 H       
  49 H49            2.8840     0.1279    -0.8804 H       
  50 H50            1.3842    -2.5924     8.2558 H       
  51 H51            1.4832    -4.3783     8.1378 H       
  52 H52            5.6721    -2.0195     7.1451 H       
  53 H53            1.9932    -2.0083     3.8625 H       
  54 H54            6.3759     0.4203     2.9620 H       
  55 H55            6.4996    -1.3630     2.7982 H       
  56 H56            4.2885     1.8057     4.7489 H       
  57 H57            3.0888     3.8359     4.0331 H       
  58 H58            1.9740     3.8940     1.8390 H       
  59 H59            2.0525     1.9367     0.3596 H       
  60 H60            0.3919    -1.8029    -8.2592 H       
  61 H61            3.6855     0.2367    -6.4697 H       
  62 H62            2.7639    -0.2266    -4.2350 H       
@<TRIPOS>BOND
   1    1    2 1
   2    1    8 2
   3    1    9 am
   4    2    3 ar
   5    2    7 ar
   6    3    4 ar
   7    3   10 1
   8    4    5 ar
   9    4   43 1
  10    5    6 ar
  11    5   44 1
  12    6    7 ar
  13    6   45 1
  14    7   46 1
  15    9   32 1
  16    9   47 1
  17   10   23 1
  18   10   48 1
  19   10   49 1
  20   11   12 1
  21   11   15 1
  22   12   13 1
  23   12   50 1
  24   12   51 1
  25   13   14 1
  26   14   15 ar
  27   14   16 ar
  28   15   19 ar
  29   16   17 ar
  30   16   52 1
  31   17   18 ar
  32   17   20 1
  33   18   19 ar
  34   18   21 1
  35   19   53 1
  36   20   22 1
  37   21   22 1
  38   21   24 1
  39   21   25 1
  40   22   54 1
  41   22   55 1
  42   23   24 am
  43   23   30 1
  44   24   31 2
  45   25   26 ar
  46   25   30 ar
  47   26   27 ar
  48   26   56 1
  49   27   28 ar
  50   27   57 1
  51   28   29 ar
  52   28   58 1
  53   29   30 ar
  54   29   59 1
  55   32   33 ar
  56   32   37 ar
  57   33   34 ar
  58   33   38 1
  59   34   35 ar
  60   34   60 1
  61   35   36 ar
  62   35   42 1
  63   36   37 ar
  64   36   61 1
  65   37   62 1
  66   38   39 1
  67   38   40 1
  68   38   41 1

#	End of record

