#	Name: ASD01916402
#	Creating user name:	WinNT
#	Creation time:	15. 06. 2019 20:07

#	Modifying user name:	WinNT
#	Modification time:	15. 06. 2019 20:07

#	Program:	/corina/corina34_cracker 3.40 0067  02.08.2006

@<TRIPOS>MOLECULE
ASD01916402
  39   40    0    0    0
SMALL
NO_CHARGES


@<TRIPOS>ATOM
   1 C1            -0.0156     1.2973     0.0092 C.2     
   2 N2             0.0021    -0.0041     0.0020 N.2     
   3 C3             1.2884    -0.4347    -0.0126 C.2     
   4 C4             2.0941     0.6597    -0.0144 C.2     
   5 N5             1.2688     1.7566    -0.0006 N.am    
   6 C6             1.6557     3.0476     0.0022 C.2     
   7 O7             0.8228     3.9310     0.0145 O.2     
   8 O8             2.9649     3.3576    -0.0086 O.3     
   9 C9             1.7206    -1.7999    -0.0240 C.1     
  10 C10            2.0748    -2.9192    -0.0334 C.1     
  11 C11            2.5190    -4.3225    -0.0452 C.3     
  12 C12            4.0481    -4.3733    -0.0601 C.3     
  13 C13            4.5029    -5.8100    -0.0721 C.ar    
  14 C14            4.7000    -6.4625    -1.2747 C.ar    
  15 C15            5.1171    -7.7804    -1.2858 C.ar    
  16 C16            5.3375    -8.4456    -0.0943 C.ar    
  17 C17            5.1413    -7.7928     1.1083 C.ar    
  18 C18            4.7283    -6.4737     1.1194 C.ar    
  19 C19           -1.2534     2.1568     0.0199 C.3     
  20 C20            3.3083     4.7684    -0.0047 C.3     
  21 C21            4.8305     4.9228    -0.0183 C.3     
  22 H22            3.1740     0.6654    -0.0244 H       
  23 H23            2.1473    -4.8287     0.8457 H       
  24 H24            2.1303    -4.8192    -0.9342 H       
  25 H25            4.4198    -3.8671    -0.9509 H       
  26 H26            4.4368    -3.8766     0.8289 H       
  27 H27            4.5278    -5.9428    -2.2057 H       
  28 H28            5.2705    -8.2904    -2.2254 H       
  29 H29            5.6627    -9.4755    -0.1029 H       
  30 H30            5.3131    -8.3127     2.0393 H       
  31 H31            4.5785    -5.9625     2.0589 H       
  32 H32           -1.5466     2.3587     1.0501 H       
  33 H33           -1.0469     3.0976    -0.4902 H       
  34 H34           -2.0621     1.6355    -0.4924 H       
  35 H35            2.8867     5.2474    -0.8884 H       
  36 H36            2.9034     5.2385     0.8915 H       
  37 H37            5.0883     5.9818    -0.0154 H       
  38 H38            5.2521     4.4437     0.8654 H       
  39 H39            5.2353     4.4527    -0.9145 H       
@<TRIPOS>BOND
   1    1    2 2
   2    1    5 1
   3    1   19 1
   4    2    3 1
   5    3    4 2
   6    3    9 1
   7    4    5 1
   8    4   22 1
   9    5    6 am
  10    6    7 2
  11    6    8 1
  12    8   20 1
  13    9   10 3
  14   10   11 1
  15   11   12 1
  16   11   23 1
  17   11   24 1
  18   12   13 1
  19   12   25 1
  20   12   26 1
  21   13   14 ar
  22   13   18 ar
  23   14   15 ar
  24   14   27 1
  25   15   16 ar
  26   15   28 1
  27   16   17 ar
  28   16   29 1
  29   17   18 ar
  30   17   30 1
  31   18   31 1
  32   19   32 1
  33   19   33 1
  34   19   34 1
  35   20   21 1
  36   20   35 1
  37   20   36 1
  38   21   37 1
  39   21   38 1
  40   21   39 1

#	End of record

