#	Name: ASD02562092
#	Creating user name:	WinNT
#	Creation time:	15. 06. 2019 20:25

#	Modifying user name:	WinNT
#	Modification time:	15. 06. 2019 20:25

#	Program:	/corina/corina34_cracker 3.40 0067  02.08.2006

@<TRIPOS>MOLECULE
ASD02562092
  66   70    0    0    0
SMALL
NO_CHARGES


@<TRIPOS>ATOM
   1 C1            -0.6331     1.3410    -0.3718 C.ar    
   2 N2            -0.4600     0.3238     0.4563 N.ar    
   3 C3            -1.1051     0.2798     1.6175 C.ar    
   4 C4            -1.9756     1.3288     1.9571 C.ar    
   5 C5            -2.1289     2.3888     1.0465 C.ar    
   6 N6            -1.4413     2.3549    -0.0893 N.ar    
   7 N7            -2.9744     3.4484     1.3301 N.pl3   
   8 N8             0.0581     1.3508    -1.5738 N.pl3   
   9 C9            -3.0812     4.5127     0.4374 C.ar    
  10 C10            0.9856     0.3486    -1.8524 C.ar    
  11 C11            0.5536    -0.9579    -2.0620 C.ar    
  12 C12           -4.2961     5.1750     0.2888 C.ar    
  13 C13           -4.4050     6.2272    -0.5920 C.ar    
  14 C14           -3.2934     6.6303    -1.3378 C.ar    
  15 C15           -2.0745     5.9628    -1.1861 C.ar    
  16 C16           -1.9712     4.9147    -0.2995 C.ar    
  17 C17            2.3406     0.6581    -1.9259 C.ar    
  18 C18            3.2598    -0.3283    -2.2013 C.ar    
  19 C19            2.8303    -1.6447    -2.4071 C.ar    
  20 C20            1.4661    -1.9506    -2.3374 C.ar    
  21 C21           -0.9153    -1.2859    -1.9867 C.3     
  22 C22            2.8018     2.0756    -1.7041 C.3     
  23 C23           -3.4032     7.7242    -2.2554 C.1     
  24 N24           -3.4903     8.5920    -2.9833 N.1     
  25 C25            3.8085    -2.7016    -2.7019 C.2     
  26 C26            3.3922    -3.9704    -2.9001 C.2     
  27 C27            4.3452    -5.0000    -3.1873 C.1     
  28 N28            5.1011    -5.8168    -3.4152 N.1     
  29 N29           -1.1471    -0.6021     2.6678 N.pl3   
  30 C30           -2.0102    -0.0938     3.5940 C.2     
  31 N31           -2.4949     1.0386     3.1751 N.2     
  32 C32           -0.4024    -1.8592     2.7745 C.3     
  33 C33            0.9662    -1.5856     3.3430 C.ar    
  34 C34            1.1648    -1.6198     4.7109 C.ar    
  35 C35            2.4184    -1.3694     5.2344 C.ar    
  36 C36            3.4785    -1.0834     4.3865 C.ar    
  37 C37            3.2766    -1.0497     3.0144 C.ar    
  38 C38            2.0223    -1.3064     2.4955 C.ar    
  39 O39            4.7126    -0.8363     4.8991 O.3     
  40 C40            5.7568    -0.5490     3.9668 C.3     
  41 H41           -3.4922     3.4496     2.1503 H       
  42 H42           -0.1039     2.0552    -2.2207 H       
  43 H43           -5.1546     4.8628     0.8650 H       
  44 H44           -5.3483     6.7405    -0.7071 H       
  45 H45           -1.2138     6.2714    -1.7610 H       
  46 H46           -1.0298     4.3988    -0.1816 H       
  47 H47            4.3110    -0.0872    -2.2588 H       
  48 H48            1.1305    -2.9648    -2.4955 H       
  49 H49           -1.3612    -1.1857    -2.9763 H       
  50 H50           -1.0414    -2.3093    -1.6334 H       
  51 H51           -1.4059    -0.6000    -1.2961 H       
  52 H52            2.9181     2.2569    -0.6356 H       
  53 H53            3.7577     2.2292    -2.2049 H       
  54 H54            2.0631     2.7659    -2.1115 H       
  55 H55            4.8602    -2.4630    -2.7600 H       
  56 H56            2.3405    -4.2090    -2.8420 H       
  57 H57           -2.2552    -0.5624     4.5357 H       
  58 H58           -0.9384    -2.5443     3.4314 H       
  59 H59           -0.3023    -2.3073     1.7860 H       
  60 H60            0.3391    -1.8422     5.3706 H       
  61 H61            2.5730    -1.3959     6.3030 H       
  62 H62            4.1003    -0.8273     2.3522 H       
  63 H63            1.8646    -1.2802     1.4274 H       
  64 H64            6.6871    -0.3715     4.5065 H       
  65 H65            5.8842    -1.3953     3.2918 H       
  66 H66            5.4957     0.3389     3.3910 H       
@<TRIPOS>BOND
   1    1    2 ar
   2    1    8 1
   3    1    6 ar
   4    2    3 ar
   5    3    4 ar
   6    3   29 1
   7    4    5 ar
   8    4   31 1
   9    5    6 ar
  10    5    7 1
  11    7    9 1
  12    7   41 1
  13    8   10 1
  14    8   42 1
  15    9   12 ar
  16    9   16 ar
  17   10   11 ar
  18   10   17 ar
  19   11   21 1
  20   11   20 ar
  21   12   13 ar
  22   12   43 1
  23   13   14 ar
  24   13   44 1
  25   14   15 ar
  26   14   23 1
  27   15   16 ar
  28   15   45 1
  29   16   46 1
  30   17   18 ar
  31   17   22 1
  32   18   19 ar
  33   18   47 1
  34   19   20 ar
  35   19   25 1
  36   20   48 1
  37   21   49 1
  38   21   50 1
  39   21   51 1
  40   22   52 1
  41   22   53 1
  42   22   54 1
  43   23   24 3
  44   25   26 2
  45   25   55 1
  46   26   27 1
  47   26   56 1
  48   27   28 3
  49   29   30 1
  50   29   32 1
  51   30   31 2
  52   30   57 1
  53   32   33 1
  54   32   58 1
  55   32   59 1
  56   33   34 ar
  57   33   38 ar
  58   34   35 ar
  59   34   60 1
  60   35   36 ar
  61   35   61 1
  62   36   37 ar
  63   36   39 1
  64   37   38 ar
  65   37   62 1
  66   38   63 1
  67   39   40 1
  68   40   64 1
  69   40   65 1
  70   40   66 1

#	End of record

