#	Name: ASD08150774
#	Creating user name:	WinNT
#	Creation time:	15. 06. 2019 21:16

#	Modifying user name:	WinNT
#	Modification time:	15. 06. 2019 21:16

#	Program:	/corina/corina34_cracker 3.40 0067  02.08.2006

@<TRIPOS>MOLECULE
ASD08150774
  61   64    0    0    0
SMALL
NO_CHARGES


@<TRIPOS>ATOM
   1 C1            -0.0173     1.3318     0.1136 C.2     
   2 N2            -0.0004     0.0025     0.2059 N.2     
   3 C3             1.1329    -0.6708     0.2926 C.2     
   4 C4             2.3483     0.0113     0.2886 C.2     
   5 C5             2.3335     1.4188     0.1910 C.2     
   6 N6             1.1444     2.0531     0.1046 N.am    
   7 C7            -1.2508     2.0011     0.0181 C.2     
   8 C8            -1.2710     3.3607    -0.0765 C.2     
   9 C9            -0.0631     4.0721    -0.0773 C.2     
  10 C10            1.1135     3.4117     0.0084 C.2     
  11 O11            3.3766     2.0516     0.1844 O.2     
  12 C12            2.4055     4.1874    -0.0006 C.3     
  13 C13            4.0264    -1.5930    -0.6322 C.ar    
  14 C14            3.6293    -0.7262     0.3854 C.ar    
  15 C15            4.4604    -0.5640     1.4990 C.ar    
  16 C16            5.6466    -1.2750     1.5416 C.ar    
  17 C17            5.9702    -2.1164     0.4907 C.ar    
  18 N18            5.1655    -2.2490    -0.5474 N.ar    
  19 C19            6.5766    -1.1347     2.7191 C.3     
  20 Cl20           7.4575    -3.0104     0.5387 Cl      
  21 C21            1.1116    -2.1741     0.3960 C.3     
  22 C22            0.4492    -2.5854     1.7124 C.3     
  23 N23            0.3528    -2.7301    -0.7271 N.pl3   
  24 N24           -1.0995    -4.1161    -3.0519 N.2     
  25 C25           -1.4186    -5.0469    -3.9028 C.2     
  26 N26           -0.6589    -6.1589    -3.6835 N.pl3   
  27 C27            0.1762    -5.8850    -2.6301 C.ar    
  28 N28            1.1168    -6.5623    -1.9794 N.ar    
  29 C29            1.7702    -6.0077    -0.9713 C.ar    
  30 N30            1.5256    -4.7685    -0.5650 N.ar    
  31 C31            0.6018    -4.0210    -1.1587 C.ar    
  32 C32           -0.1175    -4.5696    -2.2343 C.ar    
  33 N33            2.7432    -6.7460    -0.3179 N.pl3   
  34 H34           -2.1747     1.4419     0.0194 H       
  35 H35           -2.2115     3.8864    -0.1507 H       
  36 H36           -0.0723     5.1495    -0.1520 H       
  37 H37            3.0122     3.8728    -0.8497 H       
  38 H38            2.1892     5.2525    -0.0835 H       
  39 H39            2.9495     3.9980     0.9247 H       
  40 H40            3.3923    -1.7311    -1.4955 H       
  41 H41            4.1833     0.0996     2.3047 H       
  42 H42            6.3193    -1.8760     3.4757 H       
  43 H43            7.6042    -1.2919     2.3912 H       
  44 H44            6.4791    -0.1349     3.1420 H       
  45 H45            2.1326    -2.5547     0.3686 H       
  46 H46            1.0138    -2.1716     2.5480 H       
  47 H47           -0.5718    -2.2048     1.7399 H       
  48 H48            0.4338    -3.6727     1.7872 H       
  49 H49           -0.3241    -2.1934    -1.1681 H       
  50 H50           -2.1734    -4.9533    -4.6696 H       
  51 H51           -0.7017    -6.9905    -4.1808 H       
  52 H52            2.9355    -7.6534    -0.6015 H       
  53 H53            3.2321    -6.3556     0.4233 H       
  54 C54           13.7756    12.2408     9.6225 C.2     
  55 C55           13.7961    10.7339     9.6142 C.3     
  56 O56           14.8137    12.8591     9.6159 O.2     
  57 O57           12.6042    12.8961     9.6316 O.3     
  58 F58           15.1212    10.2856     9.5991 F       
  59 F59           13.1539    10.2525    10.7601 F       
  60 F60           13.1321    10.2648     8.4757 F       
  61 H61           12.6417    13.8623     9.6367 H       
@<TRIPOS>BOND
   1    1    2 2
   2    1    6 1
   3    1    7 1
   4    2    3 1
   5    3    4 2
   6    3   21 1
   7    4    5 1
   8    4   14 1
   9    5    6 am
  10    5   11 2
  11    6   10 1
  12    7    8 2
  13    7   34 1
  14    8    9 1
  15    8   35 1
  16    9   10 2
  17    9   36 1
  18   10   12 1
  19   12   37 1
  20   12   38 1
  21   12   39 1
  22   13   14 ar
  23   13   18 ar
  24   13   40 1
  25   14   15 ar
  26   15   16 ar
  27   15   41 1
  28   16   17 ar
  29   16   19 1
  30   17   18 ar
  31   17   20 1
  32   19   42 1
  33   19   43 1
  34   19   44 1
  35   21   22 1
  36   21   23 1
  37   21   45 1
  38   22   46 1
  39   22   47 1
  40   22   48 1
  41   23   31 1
  42   23   49 1
  43   24   25 2
  44   24   32 1
  45   25   26 1
  46   25   50 1
  47   26   27 1
  48   26   51 1
  49   27   28 ar
  50   27   32 ar
  51   28   29 ar
  52   29   30 ar
  53   29   33 1
  54   30   31 ar
  55   31   32 ar
  56   33   52 1
  57   33   53 1
  58   54   55 1
  59   54   56 2
  60   54   57 1
  61   55   58 1
  62   55   59 1
  63   55   60 1
  64   57   61 1

#	End of record

