#	Name: ASD02560043
#	Creating user name:	WinNT
#	Creation time:	15. 06. 2019 20:24

#	Modifying user name:	WinNT
#	Modification time:	15. 06. 2019 20:24

#	Program:	/corina/corina34_cracker 3.40 0067  02.08.2006

@<TRIPOS>MOLECULE
ASD02560043
  47   51    0    0    0
SMALL
NO_CHARGES


@<TRIPOS>ATOM
   1 C1            -0.0168     1.3868     0.0097 C.ar    
   2 C2             0.0021    -0.0041     0.0020 C.ar    
   3 C3             1.2358    -0.6769    -0.0134 C.ar    
   4 C4             2.4259     0.0484    -0.0212 C.ar    
   5 C5             2.3854     1.4250    -0.0139 C.ar    
   6 C6             1.1678     2.0903     0.0021 C.ar    
   7 N7            -0.9892    -0.9617     0.0063 N.pl3   
   8 C8            -0.4383    -2.2096    -0.0056 C.2     
   9 C9             0.9146    -2.1135    -0.0180 C.2     
  10 C10            1.8807    -3.2355    -0.0337 C.ar    
  11 N11            3.1842    -2.9816    -0.0452 N.ar    
  12 C12            4.0851    -3.9531    -0.0604 C.ar    
  13 C13            3.6881    -5.2882    -0.0349 C.ar    
  14 C14            2.3270    -5.5884    -0.0358 C.ar    
  15 C15            1.4145    -4.5480    -0.0304 C.ar    
  16 N16            5.4372    -3.6177    -0.1444 N.pl3   
  17 C17            6.1733    -4.0295    -1.2425 C.ar    
  18 C18            6.3053    -5.3967    -1.5250 C.ar    
  19 C19            5.7627    -6.4124    -0.6174 C.2     
  20 N20            4.6101    -6.3303     0.0292 N.am    
  21 N21            6.7429    -3.1274    -2.0290 N.ar    
  22 C22            7.4118    -3.4720    -3.1117 C.ar    
  23 C23            7.5490    -4.7990    -3.4773 C.ar    
  24 C24            6.9924    -5.7848    -2.6811 C.ar    
  25 C25            6.0720    -2.8363     0.9198 C.3     
  26 C26            6.6382    -3.7835     1.9796 C.3     
  27 C27            4.2687    -7.4541     0.9048 C.3     
  28 O28            6.4276    -7.4154    -0.4437 O.2     
  29 H29           -0.9590     1.9147     0.0170 H       
  30 H30            3.3752    -0.4666    -0.0327 H       
  31 H31            3.3061     1.9896    -0.0199 H       
  32 H32            1.1484     3.1701     0.0075 H       
  33 H33           -1.9411    -0.7753     0.0167 H       
  34 H34           -0.9955    -3.1348    -0.0047 H       
  35 H35            1.9905    -6.6146    -0.0368 H       
  36 H36            0.3538    -4.7513    -0.0316 H       
  37 H37            7.8612    -2.7042    -3.7240 H       
  38 H38            8.0851    -5.0635    -4.3768 H       
  39 H39            7.0867    -6.8279    -2.9448 H       
  40 H40            6.8798    -2.2378     0.4987 H       
  41 H41            5.3332    -2.1786     1.3778 H       
  42 H42            7.3770    -4.4412     1.5216 H       
  43 H43            7.1106    -3.2021     2.7714 H       
  44 H44            5.8305    -4.3820     2.4008 H       
  45 H45            5.0644    -8.1981     0.8680 H       
  46 H46            4.1534    -7.0957     1.9277 H       
  47 H47            3.3342    -7.9045     0.5702 H       
@<TRIPOS>BOND
   1    1    2 ar
   2    1    6 ar
   3    1   29 1
   4    2    3 ar
   5    2    7 1
   6    3    4 ar
   7    3    9 1
   8    4    5 ar
   9    4   30 1
  10    5    6 ar
  11    5   31 1
  12    6   32 1
  13    7    8 1
  14    7   33 1
  15    8    9 2
  16    8   34 1
  17    9   10 1
  18   10   11 ar
  19   10   15 ar
  20   11   12 ar
  21   12   13 ar
  22   12   16 1
  23   13   14 ar
  24   13   20 1
  25   14   15 ar
  26   14   35 1
  27   15   36 1
  28   16   17 1
  29   16   25 1
  30   17   18 ar
  31   17   21 ar
  32   18   19 1
  33   18   24 ar
  34   19   20 am
  35   19   28 2
  36   20   27 1
  37   21   22 ar
  38   22   23 ar
  39   22   37 1
  40   23   24 ar
  41   23   38 1
  42   24   39 1
  43   25   26 1
  44   25   40 1
  45   25   41 1
  46   26   42 1
  47   26   43 1
  48   26   44 1
  49   27   45 1
  50   27   46 1
  51   27   47 1

#	End of record

