#	Name: ASD01410278
#	Creating user name:	WinNT
#	Creation time:	15. 06. 2019 19:17

#	Modifying user name:	WinNT
#	Modification time:	15. 06. 2019 19:17

#	Program:	/corina/corina34_cracker 3.40 0067  02.08.2006

@<TRIPOS>MOLECULE
ASD01410278
  65   69    0    0    0
SMALL
NO_CHARGES


@<TRIPOS>ATOM
   1 C1             0.4975     1.6054     0.0948 C.2     
   2 C2             1.5067     0.7548     0.3415 C.2     
   3 C3             1.0656    -0.5532    -0.1609 C.2     
   4 C4            -0.1828    -0.3517    -0.6659 C.2     
   5 O5            -0.5014     0.9388    -0.5037 O.3     
   6 N6             1.2900    -3.0178    -0.2307 N.2     
   7 C7             1.8198    -1.8232    -0.1261 C.2     
   8 N8             3.1774    -1.9292     0.0198 N.pl3   
   9 C9             3.4881    -3.2732     0.0024 C.ar    
  10 C10            2.2677    -3.9559    -0.1588 C.ar    
  11 C11            4.6777    -3.9849     0.1064 C.ar    
  12 C12            4.6682    -5.3487     0.0523 C.ar    
  13 C13            3.4629    -6.0449    -0.1081 C.ar    
  14 C14            2.2620    -5.3498    -0.2131 C.ar    
  15 C15            6.2037     0.2201    -0.7472 C.3     
  16 C16            6.8415     0.1657     0.6425 C.3     
  17 C17            5.7507     0.2822     1.7091 C.3     
  18 C18            4.7620    -0.8753     1.5560 C.3     
  19 C19            4.1242    -0.8208     0.1664 C.3     
  20 C20            5.2149    -0.9374    -0.9002 C.3     
  21 C21            3.4670    -7.5204    -0.1655 C.2     
  22 N22            4.6290    -8.1956    -0.0636 N.am    
  23 O23            2.4222    -8.1263    -0.3047 O.2     
  24 C24            4.6331    -9.6595    -0.1205 C.3     
  25 C25            4.6673   -10.1129    -1.5814 C.3     
  26 C26            5.8485   -10.1867     0.5977 C.2     
  27 N27            6.0626   -11.5152     0.6740 N.am    
  28 O28            6.6340    -9.4157     1.1069 O.2     
  29 C29            7.8336   -13.1500     0.7540 C.ar    
  30 C30            8.9887   -13.6316     1.3270 C.ar    
  31 C31            9.5579   -12.9642     2.4157 C.ar    
  32 C32            8.9511   -11.8094     2.9185 C.ar    
  33 C33            7.7961   -11.3335     2.3406 C.ar    
  34 C34            7.2323   -12.0003     1.2571 C.ar    
  35 C35           10.7952   -13.4774     3.0325 C.2     
  36 O36           11.3211   -14.4814     2.5946 O.2     
  37 O37           11.3424   -12.8329     4.0817 O.3     
  38 H38            0.4893     2.6565     0.3427 H       
  39 H39            2.4505     0.9853     0.8131 H       
  40 H40           -0.8094    -1.1047    -1.1205 H       
  41 H41            5.6119    -3.4573     0.2299 H       
  42 H42            5.5963    -5.8950     0.1334 H       
  43 H43            1.3325    -5.8855    -0.3368 H       
  44 H44            5.6767     1.1665    -0.8683 H       
  45 H45            6.9807     0.1371    -1.5071 H       
  46 H46            7.3684    -0.7808     0.7636 H       
  47 H47            7.5459     0.9903     0.7515 H       
  48 H48            6.2051     0.2434     2.6991 H       
  49 H49            5.2238     1.2287     1.5880 H       
  50 H50            5.2889    -1.8217     1.6772 H       
  51 H51            3.9849    -0.7922     2.3159 H       
  52 H52            3.5972     0.1256     0.0453 H       
  53 H53            4.7606    -0.8986    -1.8903 H       
  54 H54            5.7419    -1.8838    -0.7791 H       
  55 H55            5.4627    -7.7122     0.0474 H       
  56 H56            3.7327   -10.0442     0.3584 H       
  57 H57            4.6703   -11.2021    -1.6238 H       
  58 H58            3.7882    -9.7316    -2.1009 H       
  59 H59            5.5677    -9.7282    -2.0603 H       
  60 H60            5.4029   -12.1337     0.3233 H       
  61 H61            7.3958   -13.6625    -0.0898 H       
  62 H62            9.4546   -14.5242     0.9363 H       
  63 H63            9.3879   -11.2916     3.7596 H       
  64 H64            7.3266   -10.4417     2.7287 H       
  65 H65           12.1534   -13.2071     4.4524 H       
@<TRIPOS>BOND
   1    1    2 2
   2    1    5 1
   3    1   38 1
   4    2    3 1
   5    2   39 1
   6    3    4 2
   7    3    7 1
   8    4    5 1
   9    4   40 1
  10    6    7 2
  11    6   10 1
  12    7    8 1
  13    8    9 1
  14    8   19 1
  15    9   10 ar
  16    9   11 ar
  17   10   14 ar
  18   11   12 ar
  19   11   41 1
  20   12   13 ar
  21   12   42 1
  22   13   14 ar
  23   13   21 1
  24   14   43 1
  25   15   16 1
  26   15   20 1
  27   15   44 1
  28   15   45 1
  29   16   17 1
  30   16   46 1
  31   16   47 1
  32   17   18 1
  33   17   48 1
  34   17   49 1
  35   18   19 1
  36   18   50 1
  37   18   51 1
  38   19   20 1
  39   19   52 1
  40   20   53 1
  41   20   54 1
  42   21   22 am
  43   21   23 2
  44   22   24 1
  45   22   55 1
  46   24   25 1
  47   24   26 1
  48   24   56 1
  49   25   57 1
  50   25   58 1
  51   25   59 1
  52   26   27 am
  53   26   28 2
  54   27   34 1
  55   27   60 1
  56   29   30 ar
  57   29   34 ar
  58   29   61 1
  59   30   31 ar
  60   30   62 1
  61   31   32 ar
  62   31   35 1
  63   32   33 ar
  64   32   63 1
  65   33   34 ar
  66   33   64 1
  67   35   36 2
  68   35   37 1
  69   37   65 1

#	End of record

