#	Name: ASD06590013
#	Creating user name:	WinNT
#	Creation time:	15. 06. 2019 21:06

#	Modifying user name:	WinNT
#	Modification time:	15. 06. 2019 21:06

#	Program:	/corina/corina34_cracker 3.40 0067  02.08.2006

@<TRIPOS>MOLECULE
ASD06590013
 351  350    0    0    0
SMALL
NO_CHARGES


@<TRIPOS>ATOM
   1 C1            -5.1727     2.6442    -3.0983 C.2     
   2 O2            -4.4515     1.7531    -3.4943 O.2     
   3 N3            -3.1593     3.9574    -2.7656 N.am    
   4 C4            -4.6166     4.0302    -2.8966 C.3     
   5 C5            -4.9775     4.9045    -4.0992 C.3     
   6 C6            -6.4963     4.9168    -4.2834 C.3     
   7 C7            -4.4813     6.3318    -3.8594 C.3     
   8 C8            -8.5088     1.2187    -3.4419 C.2     
   9 O9            -9.0795     2.2618    -3.2029 O.2     
  10 N10           -6.4728     2.3961    -2.8440 N.am    
  11 C11           -7.0388     1.0780    -3.1413 C.3     
  12 C12           -6.8511     0.1580    -1.9333 C.3     
  13 C13           -7.4108    -1.2288    -2.2566 C.3     
  14 C14           -6.5341    -1.8981    -3.3169 C.3     
  15 C15           -7.4191    -2.0838    -0.9878 C.3     
  16 C16          -11.2484    -1.0786    -4.2036 C.2     
  17 O17          -10.5504    -2.0557    -4.0340 O.2     
  18 N18           -9.1893     0.1854    -3.9764 N.am    
  19 C19          -10.6326     0.2969    -4.2014 C.3     
  20 C20          -10.8878     0.9721    -5.5504 C.3     
  21 C21          -14.4489    -2.5379    -5.1987 C.2     
  22 O22          -14.9168    -1.4807    -5.5649 O.2     
  23 N23          -12.5748    -1.2228    -4.3942 N.am    
  24 C24          -13.1734    -2.5599    -4.3964 C.3     
  25 C25          -13.4824    -2.9827    -2.9588 C.3     
  26 C26          -12.1880    -3.0017    -2.1433 C.3     
  27 O27          -14.3991    -2.0542    -2.3758 O.3     
  28 C28          -17.1162    -4.9357    -5.9055 C.2     
  29 O29          -16.6279    -5.7771    -5.1812 O.2     
  30 N30          -15.0696    -3.6932    -5.5093 N.am    
  31 C31          -16.3583    -3.6682    -6.2057 C.3     
  32 C32          -16.1213    -3.5606    -7.7134 C.3     
  33 C33          -15.4631    -2.2166    -8.0315 C.3     
  34 C34          -15.2261    -2.1090    -9.5392 C.3     
  35 C35          -14.5680    -0.7649    -9.8574 C.3     
  36 N36          -14.3404    -0.6617   -11.3050 N.3     
  37 C37          -20.0460    -6.6465    -7.2665 C.2     
  38 O38          -20.1168    -5.8912    -8.2128 O.2     
  39 N39          -18.3365    -5.1342    -6.4419 N.am    
  40 C40          -19.0733    -6.3664    -6.1500 C.3     
  41 C41          -19.8390    -6.2036    -4.8354 C.3     
  42 C42          -18.8454    -6.0435    -3.6830 C.3     
  43 C43          -19.6082    -5.7564    -2.3881 C.3     
  44 C44          -18.0372    -7.3328    -3.5237 C.3     
  45 C45          -22.9205    -8.8468    -7.7754 C.2     
  46 O46          -22.9396    -9.1837    -6.6104 O.2     
  47 N47          -20.8372    -7.7363    -7.2134 N.am    
  48 C48          -21.7828    -8.0085    -8.2988 C.3     
  49 C49          -21.0674    -8.7633    -9.4210 C.3     
  50 C50          -19.9931    -7.8642   -10.0362 C.3     
  51 C51          -19.2777    -8.6189   -11.1585 C.3     
  52 N52          -18.2491    -7.7581   -11.7475 N.pl3   
  53 C53          -17.4715    -8.2244   -12.7809 C.2     
  54 N54          -16.5563    -7.4585   -13.3050 N.2     
  55 N55          -17.6593    -9.4987   -13.2616 N.pl3   
  56 C56          -25.6362   -10.8162    -9.2278 C.2     
  57 O57          -25.1932   -10.7019   -10.3510 O.2     
  58 N58          -23.9167    -9.2222    -8.6018 N.am    
  59 C59          -25.0227   -10.0372    -8.0930 C.3     
  60 C60          -26.0817    -9.1266    -7.4682 C.3     
  61 C61          -25.4942    -8.4293    -6.2397 C.3     
  62 C62          -26.5373    -7.5325    -5.6243 C.2     
  63 O63          -27.6377    -7.4586    -6.1178 O.2     
  64 O64          -26.2439    -6.8157    -4.5280 O.3     
  65 C65          -28.7049   -12.7291    -9.7631 C.2     
  66 O66          -29.1606   -12.4261    -8.6808 O.2     
  67 N67          -26.6771   -11.6398    -8.9946 N.am    
  68 C68          -27.2735   -12.3971   -10.0978 C.3     
  69 C69          -26.4864   -13.6916   -10.3119 C.3     
  70 C70          -25.0340   -13.3545   -10.6549 C.3     
  71 O71          -26.5243   -14.4752    -9.1176 O.3     
  72 C72          -31.2053   -15.0679   -10.6689 C.2     
  73 O73          -30.3389   -15.8036   -11.0918 O.2     
  74 N74          -29.4786   -13.3627   -10.6666 N.am    
  75 C75          -30.8885   -13.6257   -10.3675 C.3     
  76 C76          -31.7702   -12.7191   -11.2286 C.3     
  77 C77          -31.4925   -11.2777   -10.8879 C.2     
  78 O78          -30.7358   -11.0040    -9.9805 O.2     
  79 N79          -32.0850   -10.2927   -11.5916 N.am    
  80 C80          -34.2312   -17.0825   -11.0543 C.2     
  81 O81          -34.9517   -16.1074   -11.0217 O.2     
  82 N82          -32.4516   -15.5401   -10.4684 N.am    
  83 C83          -32.7597   -16.9421   -10.7613 C.3     
  84 C84          -32.3954   -17.8075    -9.5533 C.3     
  85 C85          -36.4940   -19.8701   -11.9389 C.2     
  86 O86          -35.6118   -20.7021   -11.9178 O.2     
  87 N87          -34.7466   -18.2915   -11.3527 N.am    
  88 C88          -36.1772   -18.4280   -11.6376 C.3     
  89 C89          -39.3028   -21.7113   -13.3825 C.2     
  90 O90          -39.8711   -20.6932   -13.7162 O.2     
  91 N91          -37.7578   -20.2354   -12.2319 N.am    
  92 C92          -38.0659   -21.6374   -12.5248 C.3     
  93 C93          -38.3075   -22.3908   -11.2153 C.3     
  94 C94          -37.0138   -22.4227   -10.3990 C.3     
  95 C95          -37.2554   -23.1762    -9.0895 C.3     
  96 N96          -36.0167   -23.2067    -8.3080 N.pl3   
  97 C97          -35.9908   -23.8341    -7.0849 C.2     
  98 N98          -34.8887   -23.8612    -6.3896 N.2     
  99 N99          -37.1274   -24.4329    -6.5954 N.pl3   
 100 C100         -41.6464   -24.3184   -14.4187 C.2     
 101 O101         -41.1644   -25.1316   -13.6589 O.2     
 102 N102         -39.7775   -22.9089   -13.7787 N.am    
 103 C103         -40.9800   -22.9807   -14.6125 C.3     
 104 C104         -40.5918   -22.8126   -16.0828 C.3     
 105 O105         -39.7822   -23.9170   -16.4911 O.3     
 106 C106         -42.9350   -26.9530   -15.7056 C.2     
 107 O107         -42.0392   -26.7053   -16.4848 O.2     
 108 N108         -42.7781   -24.6110   -15.0896 N.am    
 109 C109         -43.4859   -25.8650   -14.8203 C.3     
 110 C110         -44.9774   -25.6805   -15.1071 C.3     
 111 C111         -45.5561   -24.6834   -14.1365 C.2     
 112 O112         -44.8335   -24.1123   -13.3545 O.2     
 113 O113         -46.8742   -24.4298   -14.1408 O.3     
 114 C114         -43.9496   -30.3241   -16.6900 C.2     
 115 O115         -45.0365   -30.2109   -16.1641 O.2     
 116 N116         -43.4377   -28.2013   -15.6314 N.am    
 117 C117         -42.9020   -29.2590   -16.4920 C.3     
 118 C118         -41.6661   -29.8753   -15.8335 C.3     
 119 C119         -40.6527   -28.7731   -15.5190 C.3     
 120 O120         -42.0484   -30.5306   -14.6226 O.3     
 121 C121         -44.0262   -33.7480   -17.9684 C.2     
 122 O122         -42.8167   -33.8105   -18.0325 O.2     
 123 N123         -43.6785   -31.4026   -17.4516 N.am    
 124 C124         -44.6969   -32.4380   -17.6441 C.3     
 125 C125         -45.6193   -32.0380   -18.7974 C.3     
 126 C126         -46.3936   -30.7746   -18.4164 C.3     
 127 C127         -47.3160   -30.3746   -19.5697 C.3     
 128 N128         -48.0575   -29.1649   -19.2050 N.pl3   
 129 C129         -48.9537   -28.6147   -20.0905 C.2     
 130 N130         -49.1437   -29.1694   -21.2546 N.2     
 131 N131         -49.6495   -27.4794   -19.7482 N.pl3   
 132 C132         -45.0711   -36.9973   -19.2774 C.2     
 133 O133         -46.1849   -36.5958   -19.5403 O.2     
 134 N134         -44.7705   -34.8501   -18.1873 N.am    
 135 C135         -44.1186   -36.1236   -18.5026 C.3     
 136 C136         -43.7214   -36.8284   -17.2040 C.3     
 137 C137         -42.6602   -35.9994   -16.4777 C.3     
 138 C138         -42.2690   -36.6936   -15.1986 C.2     
 139 O139         -42.7878   -37.7477   -14.8976 O.2     
 140 N140         -41.3426   -36.1431   -14.3892 N.am    
 141 C141         -46.4986   -39.8245   -19.4715 C.2     
 142 O142         -46.3705   -39.6659   -18.2805 O.2     
 143 N143         -44.6853   -38.2249   -19.6781 N.am    
 144 C144         -45.6113   -39.0743   -20.4312 C.3     
 145 C145         -44.8162   -40.0715   -21.2764 C.3     
 146 C146         -44.0098   -39.3148   -22.3338 C.3     
 147 C147         -43.2266   -40.2970   -23.1662 C.2     
 148 O148         -43.3056   -41.4852   -22.9363 O.2     
 149 N149         -42.4384   -39.8550   -24.1661 N.am    
 150 O150         -47.4311   -40.6688   -19.9397 O.3     
 151 C151          -2.4935     4.9221    -2.1003 C.2     
 152 O152          -3.1008     5.8504    -1.6102 O.2     
 153 C153          13.1715    12.7726     4.5455 C.3     
 154 C154          11.6495    12.8486     4.4086 C.3     
 155 C155          11.1478    11.6404     3.6153 C.3     
 156 C156           9.6258    11.7164     3.4785 C.3     
 157 C157           9.1241    10.5082     2.6852 C.3     
 158 C158           7.6021    10.5842     2.5483 C.3     
 159 C159           7.1004     9.3760     1.7550 C.3     
 160 C160           5.5784     9.4520     1.6182 C.3     
 161 C161           5.0767     8.2438     0.8249 C.3     
 162 C162           3.5547     8.3198     0.6880 C.3     
 163 C163           3.0530     7.1116    -0.1053 C.3     
 164 C164           1.5310     7.1876    -0.2421 C.3     
 165 C165           1.0293     5.9794    -1.0354 C.3     
 166 C166          -0.4927     6.0554    -1.1722 C.3     
 167 C167          -0.9944     4.8472    -1.9655 C.3     
 168 H168          -2.6736     3.2149    -3.1576 H       
 169 H169          -5.0416     4.4640    -1.9915 H       
 170 H170          -4.5061     4.5018    -4.9957 H       
 171 H171          -6.9686     5.3044    -3.3807 H       
 172 H172          -6.7545     5.5526    -5.1303 H       
 173 H173          -6.8479     3.9021    -4.4703 H       
 174 H174          -3.3992     6.3230    -3.7282 H       
 175 H175          -4.7384     6.9546    -4.7161 H       
 176 H176          -4.9527     6.7345    -2.9629 H       
 177 H177          -7.0337     3.0903    -2.4640 H       
 178 H178          -6.5305     0.6509    -4.0058 H       
 179 H179          -5.7894     0.0761    -1.7005 H       
 180 H180          -7.3803     0.5724    -1.0753 H       
 181 H181          -8.4281    -1.1308    -2.6353 H       
 182 H182          -5.5313    -2.0485    -2.9171 H       
 183 H183          -6.9650    -2.8616    -3.5892 H       
 184 H184          -6.4815    -1.2611    -4.1998 H       
 185 H185          -8.0436    -1.6070    -0.2324 H       
 186 H186          -7.8178    -3.0718    -1.2181 H       
 187 H187          -6.4017    -2.1819    -0.6091 H       
 188 H188          -8.7234    -0.6321    -4.2121 H       
 189 H189         -11.0793     0.8936    -3.4061 H       
 190 H190         -10.4411     0.3754    -6.3457 H       
 191 H191         -11.9617     1.0551    -5.7178 H       
 192 H192         -10.4424     1.9670    -5.5488 H       
 193 H193         -13.1331    -0.4412    -4.5299 H       
 194 H194         -12.4761    -3.2694    -4.8418 H       
 195 H195         -13.9256    -3.9785    -2.9602 H       
 196 H196         -11.7975    -1.9876    -2.0579 H       
 197 H197         -12.3911    -3.3979    -1.1484 H       
 198 H198         -11.4532    -3.6331    -2.6428 H       
 199 H199         -15.2437    -1.9900    -2.8422 H       
 200 H200         -14.6630    -4.5413    -5.2718 H       
 201 H201         -16.9377    -2.8094    -5.8667 H       
 202 H202         -15.4680    -4.3708    -8.0372 H       
 203 H203         -17.0747    -3.6313    -8.2370 H       
 204 H204         -16.1164    -1.4064    -7.7077 H       
 205 H205         -14.5097    -2.1459    -7.5079 H       
 206 H206         -14.5728    -2.9192    -9.8631 H       
 207 H207         -16.1795    -2.1797   -10.0628 H       
 208 H208         -15.2213     0.0452    -9.5336 H       
 209 H209         -13.6146    -0.6943    -9.3338 H       
 210 H210         -13.9062     0.2180   -11.5409 H       
 211 H211         -13.7904    -1.4380   -11.6409 H       
 212 H212         -18.7270    -4.4613    -7.0211 H       
 213 H213         -18.3725    -7.1966    -6.0619 H       
 214 H214         -20.4748    -5.3201    -4.8923 H       
 215 H215         -20.4564    -7.0851    -4.6630 H       
 216 H216         -18.1700    -5.2155    -3.8980 H       
 217 H217         -20.2836    -6.5845    -2.1732 H       
 218 H218         -18.9004    -5.6424    -1.5671 H       
 219 H219         -20.1840    -4.8379    -2.5017 H       
 220 H220         -17.3293    -7.2187    -2.7026 H       
 221 H221         -18.7126    -8.1608    -3.3087 H       
 222 H222         -17.4937    -7.5373    -4.4461 H       
 223 H223         -20.7806    -8.3403    -6.4566 H       
 224 H224         -22.1730    -7.0671    -8.6854 H       
 225 H225         -20.6011    -9.6611    -9.0154 H       
 226 H226         -21.7894    -9.0437   -10.1880 H       
 227 H227         -20.4593    -6.9663   -10.4419 H       
 228 H228         -19.2711    -7.5838    -9.2692 H       
 229 H229         -18.8115    -9.5168   -10.7528 H       
 230 H230         -19.9997    -8.8993   -11.9254 H       
 231 H231         -18.1166    -6.8590   -11.4083 H       
 232 H232         -16.0077    -7.7875   -14.0341 H       
 233 H233         -18.3404   -10.0687   -12.8716 H       
 234 H234         -17.1107    -9.8278   -13.9908 H       
 235 H235         -23.9014    -8.9528    -9.5335 H       
 236 H236         -24.6474   -10.7287    -7.3387 H       
 237 H237         -26.3928    -8.3780    -8.1969 H       
 238 H238         -26.9436    -9.7234    -7.1698 H       
 239 H239         -25.1831    -9.1779    -5.5111 H       
 240 H240         -24.6323    -7.8325    -6.5381 H       
 241 H241         -26.9453    -6.2548    -4.1695 H       
 242 H242         -27.0314   -11.7313    -8.0962 H       
 243 H243         -27.2427   -11.7983   -11.0080 H       
 244 H244         -26.9316   -14.2561   -11.1312 H       
 245 H245         -24.5940   -12.7753    -9.8431 H       
 246 H246         -24.4693   -14.2768   -10.7908 H       
 247 H247         -25.0040   -12.7711   -11.5752 H       
 248 H248         -27.4159   -14.7261    -8.8399 H       
 249 H249         -29.1021   -13.6446   -11.5150 H       
 250 H250         -31.0800   -13.4242    -9.3136 H       
 251 H251         -31.5502   -12.8924   -12.2820 H       
 252 H252         -32.8194   -12.9426   -11.0351 H       
 253 H253         -32.6902   -10.5116   -12.3174 H       
 254 H254         -31.9062    -9.3649   -11.3723 H       
 255 H255         -33.1446   -14.9518   -10.1301 H       
 256 H256         -32.1840   -17.2672   -11.6279 H       
 257 H257         -32.6246   -18.8506    -9.7712 H       
 258 H258         -31.3311   -17.7060    -9.3413 H       
 259 H259         -32.9711   -17.4824    -8.6866 H       
 260 H260         -34.1704   -19.0714   -11.3788 H       
 261 H261         -36.4367   -17.8115   -12.4982 H       
 262 H262         -36.7528   -18.1029   -10.7709 H       
 263 H263         -38.4635   -19.5700   -12.2487 H       
 264 H264         -37.2283   -22.0902   -13.0553 H       
 265 H265         -39.0856   -21.8852   -10.6434 H       
 266 H266         -38.6232   -23.4106   -11.4358 H       
 267 H267         -36.2357   -22.9283   -10.9709 H       
 268 H268         -36.6981   -21.4030   -10.1786 H       
 269 H269         -38.0335   -22.6705    -8.5177 H       
 270 H270         -37.5711   -24.1959    -9.3100 H       
 271 H271         -35.2148   -22.7841    -8.6534 H       
 272 H272         -34.8705   -24.3039    -5.5267 H       
 273 H273         -37.9476   -24.4127    -7.1129 H       
 274 H274         -37.1092   -24.8756    -5.7325 H       
 275 H275         -39.3230   -23.7232   -13.5118 H       
 276 H276         -41.6691   -22.1865   -14.3255 H       
 277 H277         -41.4932   -22.7770   -16.6947 H       
 278 H278         -40.0316   -21.8858   -16.2070 H       
 279 H279         -39.4986   -23.8766   -17.4147 H       
 280 H280         -43.1238   -23.9912   -15.7509 H       
 281 H281         -43.3485   -26.1425   -13.7752 H       
 282 H282         -45.1091   -25.3148   -16.1254 H       
 283 H283         -45.4899   -26.6360   -14.9952 H       
 284 H284         -47.1988   -23.7826   -13.4998 H       
 285 H285         -44.1541   -28.3994   -15.0082 H       
 286 H286         -42.6263   -28.8365   -17.4582 H       
 287 H287         -41.2160   -30.5998   -16.5122 H       
 288 H288         -41.1028   -28.0486   -14.8403 H       
 289 H289         -39.7722   -29.2122   -15.0499 H       
 290 H290         -40.3611   -28.2732   -16.4427 H       
 291 H291         -42.4570   -29.9450   -13.9705 H       
 292 H292         -42.8092   -31.4931   -17.8723 H       
 293 H293         -45.2825   -32.5459   -16.7311 H       
 294 H294         -45.0230   -31.8438   -19.6889 H       
 295 H295         -46.3210   -32.8474   -18.9988 H       
 296 H296         -46.9899   -30.9689   -17.5249 H       
 297 H297         -45.6919   -29.9653   -18.2150 H       
 298 H298         -46.7198   -30.1804   -20.4613 H       
 299 H299         -48.0178   -31.1840   -19.7712 H       
 300 H300         -47.9161   -28.7521   -18.3387 H       
 301 H301         -49.7760   -28.7812   -21.8795 H       
 302 H302         -49.5081   -27.0666   -18.8819 H       
 303 H303         -50.2818   -27.0913   -20.3730 H       
 304 H304         -45.7379   -34.8001   -18.1361 H       
 305 H305         -43.2275   -35.9370   -19.1020 H       
 306 H306         -44.5985   -36.9355   -16.5658 H       
 307 H307         -43.3173   -37.8142   -17.4346 H       
 308 H308         -41.7831   -35.8923   -17.1160 H       
 309 H309         -43.0643   -35.0136   -16.2471 H       
 310 H310         -40.9276   -35.3001   -14.6300 H       
 311 H311         -41.0907   -36.5900   -13.5660 H       
 312 H312         -43.7945   -38.5460   -19.4678 H       
 313 H313         -46.2251   -38.4533   -21.0837 H       
 314 H314         -44.1371   -40.6319   -20.6339 H       
 315 H315         -45.5032   -40.7605   -21.7676 H       
 316 H316         -44.6889   -38.7543   -22.9763 H       
 317 H317         -43.3228   -38.6258   -21.8426 H       
 318 H318         -42.3753   -38.9047   -24.3500 H       
 319 H319         -41.9343   -40.4872   -24.7019 H       
 320 H320         -47.9762   -41.1273   -19.2857 H       
 321 H321          13.4439    11.8559     5.0685 H       
 322 H322          13.6259    12.7743     3.5547 H       
 323 H323          13.5289    13.6333     5.1106 H       
 324 H324          11.1951    12.8469     5.3994 H       
 325 H325          11.3771    13.7653     3.8855 H       
 326 H326          11.6022    11.6421     2.6246 H       
 327 H327          11.4202    10.7237     4.1384 H       
 328 H328           9.1714    11.7147     4.4692 H       
 329 H329           9.3534    12.6331     2.9554 H       
 330 H330           9.5785    10.5099     1.6944 H       
 331 H331           9.3965     9.5915     3.2083 H       
 332 H332           7.1477    10.5825     3.5391 H       
 333 H333           7.3297    11.5009     2.0252 H       
 334 H334           7.5548     9.3777     0.7643 H       
 335 H335           7.3728     8.4593     2.2781 H       
 336 H336           5.1240     9.4503     2.6089 H       
 337 H337           5.3060    10.3687     1.0951 H       
 338 H338           5.5311     8.2455    -0.1659 H       
 339 H339           5.3491     7.3271     1.3480 H       
 340 H340           3.1003     8.3181     1.6788 H       
 341 H341           3.2823     9.2365     0.1649 H       
 342 H342           3.5074     7.1133    -1.0960 H       
 343 H343           3.3254     6.1949     0.4178 H       
 344 H344           1.0766     7.1859     0.7487 H       
 345 H345           1.2586     8.1043    -0.7652 H       
 346 H346           1.4837     5.9811    -2.0262 H       
 347 H347           1.3017     5.0627    -0.5123 H       
 348 H348          -0.9471     6.0537    -0.1815 H       
 349 H349          -0.7651     6.9721    -1.6953 H       
 350 H350          -0.7220     3.9305    -1.4425 H       
 351 H351          -0.5400     4.8489    -2.9563 H       
@<TRIPOS>BOND
   1    1    2 2
   2    1    4 1
   3    1   10 am
   4    3  151 am
   5    3    4 1
   6    3  168 1
   7    4    5 1
   8    4  169 1
   9    5    6 1
  10    5    7 1
  11    5  170 1
  12    6  171 1
  13    6  172 1
  14    6  173 1
  15    7  174 1
  16    7  175 1
  17    7  176 1
  18    8    9 2
  19    8   11 1
  20    8   18 am
  21   10   11 1
  22   10  177 1
  23   11   12 1
  24   11  178 1
  25   12   13 1
  26   12  179 1
  27   12  180 1
  28   13   14 1
  29   13   15 1
  30   13  181 1
  31   14  182 1
  32   14  183 1
  33   14  184 1
  34   15  185 1
  35   15  186 1
  36   15  187 1
  37   16   17 2
  38   16   19 1
  39   16   23 am
  40   18   19 1
  41   18  188 1
  42   19   20 1
  43   19  189 1
  44   20  190 1
  45   20  191 1
  46   20  192 1
  47   21   22 2
  48   21   24 1
  49   21   30 am
  50   23   24 1
  51   23  193 1
  52   24   25 1
  53   24  194 1
  54   25   26 1
  55   25   27 1
  56   25  195 1
  57   26  196 1
  58   26  197 1
  59   26  198 1
  60   27  199 1
  61   28   29 2
  62   28   31 1
  63   28   39 am
  64   30   31 1
  65   30  200 1
  66   31   32 1
  67   31  201 1
  68   32   33 1
  69   32  202 1
  70   32  203 1
  71   33   34 1
  72   33  204 1
  73   33  205 1
  74   34   35 1
  75   34  206 1
  76   34  207 1
  77   35   36 1
  78   35  208 1
  79   35  209 1
  80   36  210 1
  81   36  211 1
  82   37   38 2
  83   37   40 1
  84   37   47 am
  85   39   40 1
  86   39  212 1
  87   40   41 1
  88   40  213 1
  89   41   42 1
  90   41  214 1
  91   41  215 1
  92   42   43 1
  93   42   44 1
  94   42  216 1
  95   43  217 1
  96   43  218 1
  97   43  219 1
  98   44  220 1
  99   44  221 1
 100   44  222 1
 101   45   46 2
 102   45   48 1
 103   45   58 am
 104   47   48 1
 105   47  223 1
 106   48   49 1
 107   48  224 1
 108   49   50 1
 109   49  225 1
 110   49  226 1
 111   50   51 1
 112   50  227 1
 113   50  228 1
 114   51   52 1
 115   51  229 1
 116   51  230 1
 117   52   53 1
 118   52  231 1
 119   53   54 2
 120   53   55 1
 121   54  232 1
 122   55  233 1
 123   55  234 1
 124   56   57 2
 125   56   59 1
 126   56   67 am
 127   58   59 1
 128   58  235 1
 129   59   60 1
 130   59  236 1
 131   60   61 1
 132   60  237 1
 133   60  238 1
 134   61   62 1
 135   61  239 1
 136   61  240 1
 137   62   63 2
 138   62   64 1
 139   64  241 1
 140   65   66 2
 141   65   68 1
 142   65   74 am
 143   67   68 1
 144   67  242 1
 145   68   69 1
 146   68  243 1
 147   69   70 1
 148   69   71 1
 149   69  244 1
 150   70  245 1
 151   70  246 1
 152   70  247 1
 153   71  248 1
 154   72   73 2
 155   72   75 1
 156   72   82 am
 157   74   75 1
 158   74  249 1
 159   75   76 1
 160   75  250 1
 161   76   77 1
 162   76  251 1
 163   76  252 1
 164   77   78 2
 165   77   79 am
 166   79  253 1
 167   79  254 1
 168   80   81 2
 169   80   83 1
 170   80   87 am
 171   82   83 1
 172   82  255 1
 173   83   84 1
 174   83  256 1
 175   84  257 1
 176   84  258 1
 177   84  259 1
 178   85   86 2
 179   85   88 1
 180   85   91 am
 181   87   88 1
 182   87  260 1
 183   88  261 1
 184   88  262 1
 185   89   90 2
 186   89   92 1
 187   89  102 am
 188   91   92 1
 189   91  263 1
 190   92   93 1
 191   92  264 1
 192   93   94 1
 193   93  265 1
 194   93  266 1
 195   94   95 1
 196   94  267 1
 197   94  268 1
 198   95   96 1
 199   95  269 1
 200   95  270 1
 201   96   97 1
 202   96  271 1
 203   97   98 2
 204   97   99 1
 205   98  272 1
 206   99  273 1
 207   99  274 1
 208  100  101 2
 209  100  103 1
 210  100  108 am
 211  102  103 1
 212  102  275 1
 213  103  104 1
 214  103  276 1
 215  104  105 1
 216  104  277 1
 217  104  278 1
 218  105  279 1
 219  106  107 2
 220  106  109 1
 221  106  116 am
 222  108  109 1
 223  108  280 1
 224  109  110 1
 225  109  281 1
 226  110  111 1
 227  110  282 1
 228  110  283 1
 229  111  112 2
 230  111  113 1
 231  113  284 1
 232  114  115 2
 233  114  117 1
 234  114  123 am
 235  116  117 1
 236  116  285 1
 237  117  118 1
 238  117  286 1
 239  118  119 1
 240  118  120 1
 241  118  287 1
 242  119  288 1
 243  119  289 1
 244  119  290 1
 245  120  291 1
 246  121  122 2
 247  121  124 1
 248  121  134 am
 249  123  124 1
 250  123  292 1
 251  124  125 1
 252  124  293 1
 253  125  126 1
 254  125  294 1
 255  125  295 1
 256  126  127 1
 257  126  296 1
 258  126  297 1
 259  127  128 1
 260  127  298 1
 261  127  299 1
 262  128  129 1
 263  128  300 1
 264  129  130 2
 265  129  131 1
 266  130  301 1
 267  131  302 1
 268  131  303 1
 269  132  133 2
 270  132  135 1
 271  132  143 am
 272  134  135 1
 273  134  304 1
 274  135  136 1
 275  135  305 1
 276  136  137 1
 277  136  306 1
 278  136  307 1
 279  137  138 1
 280  137  308 1
 281  137  309 1
 282  138  139 2
 283  138  140 am
 284  140  310 1
 285  140  311 1
 286  141  142 2
 287  141  144 1
 288  141  150 1
 289  143  144 1
 290  143  312 1
 291  144  145 1
 292  144  313 1
 293  145  146 1
 294  145  314 1
 295  145  315 1
 296  146  147 1
 297  146  316 1
 298  146  317 1
 299  147  148 2
 300  147  149 am
 301  149  318 1
 302  149  319 1
 303  150  320 1
 304  151  152 2
 305  151  167 1
 306  153  154 1
 307  153  321 1
 308  153  322 1
 309  153  323 1
 310  154  155 1
 311  154  324 1
 312  154  325 1
 313  155  156 1
 314  155  326 1
 315  155  327 1
 316  156  157 1
 317  156  328 1
 318  156  329 1
 319  157  158 1
 320  157  330 1
 321  157  331 1
 322  158  159 1
 323  158  332 1
 324  158  333 1
 325  159  160 1
 326  159  334 1
 327  159  335 1
 328  160  161 1
 329  160  336 1
 330  160  337 1
 331  161  162 1
 332  161  338 1
 333  161  339 1
 334  162  163 1
 335  162  340 1
 336  162  341 1
 337  163  164 1
 338  163  342 1
 339  163  343 1
 340  164  165 1
 341  164  344 1
 342  164  345 1
 343  165  166 1
 344  165  346 1
 345  165  347 1
 346  166  167 1
 347  166  348 1
 348  166  349 1
 349  167  350 1
 350  167  351 1

#	End of record

