#	Name: ASD01812828
#	Creating user name:	WinNT
#	Creation time:	15. 06. 2019 19:29

#	Modifying user name:	WinNT
#	Modification time:	15. 06. 2019 19:29

#	Program:	/corina/corina34_cracker 3.40 0067  02.08.2006

@<TRIPOS>MOLECULE
ASD01812828
  56   60    0    0    0
SMALL
NO_CHARGES


@<TRIPOS>ATOM
   1 C1            -0.0167     1.3764     0.0213 C.ar    
   2 C2             0.0020    -0.0040     0.0150 C.ar    
   3 C3             1.2086    -0.6873    -0.0090 C.ar    
   4 C4             2.3938     0.0074    -0.0271 C.ar    
   5 C5             2.3938     1.4056    -0.0214 C.ar    
   6 C6             1.1719     2.0915     0.0033 C.ar    
   7 C7             3.8408    -0.4178    -0.0547 C.3     
   8 N8             4.6308     0.8188    -0.0639 N.am    
   9 C9             3.7911     1.8682    -0.0446 C.2     
  10 C10            6.0935     0.8966    -0.0894 C.3     
  11 C11            6.5700     0.9288    -1.5187 C.ar    
  12 C12            6.7242     2.1412    -2.1665 C.ar    
  13 C13            7.1603     2.1765    -3.4755 C.ar    
  14 C14            7.4458     0.9879    -4.1443 C.ar    
  15 C15            7.2891    -0.2306    -3.4867 C.ar    
  16 C16            6.8570    -0.2539    -2.1761 C.ar    
  17 O17            1.1515     3.4479     0.0091 O.3     
  18 O18            4.1367     3.0340    -0.0457 O.2     
  19 C19            7.9145     1.0195    -5.5517 C.ar    
  20 C20           -0.1276     4.0779    -0.0868 C.3     
  21 C21            8.0786     2.2289    -6.2313 C.ar    
  22 N22            8.4966     2.2233    -7.4815 N.ar    
  23 N23            8.7634     1.1375    -8.1104 N.ar    
  24 C24            8.6394    -0.0531    -7.5537 C.ar    
  25 C25            8.2130    -0.1616    -6.2421 C.ar    
  26 C26            0.0375     5.4800    -0.6765 C.3     
  27 C27           -1.3320     6.1545    -0.7791 C.3     
  28 C28           -1.9555     6.2575     0.6143 C.3     
  29 C29           -2.1206     4.8553     1.2040 C.3     
  30 C30           -0.7511     4.1808     1.3066 C.3     
  31 O31            0.6198     5.3839    -1.9779 O.3     
  32 H32           -0.9603     1.9016     0.0359 H       
  33 H33           -0.9272    -0.5543     0.0291 H       
  34 H34            1.2166    -1.7672    -0.0132 H       
  35 H35            4.0755    -1.0059     0.8325 H       
  36 H36            4.0435    -0.9987    -0.9545 H       
  37 H37            6.4181     1.8027     0.4223 H       
  38 H38            6.5125     0.0252     0.4138 H       
  39 H39            6.5026     3.0618    -1.6471 H       
  40 H40            7.2797     3.1237    -3.9805 H       
  41 H41            7.5090    -1.1548    -4.0003 H       
  42 H42            6.7388    -1.1975    -1.6642 H       
  43 H43           -0.7765     3.4862    -0.7324 H       
  44 H44            7.8636     3.1638    -5.7351 H       
  45 H45            8.8748    -0.9418    -8.1206 H       
  46 H46            8.1100    -1.1262    -5.7673 H       
  47 H47            0.6864     6.0716    -0.0308 H       
  48 H48           -1.2144     7.1534    -1.1992 H       
  49 H49           -1.9809     5.5629    -1.4248 H       
  50 H50           -1.3065     6.8491     1.2600 H       
  51 H51           -2.9311     6.7380     0.5412 H       
  52 H52           -2.5648     4.9287     2.1967 H       
  53 H53           -2.7695     4.2637     0.5583 H       
  54 H54           -0.8687     3.1819     1.7267 H       
  55 H55           -0.1021     4.7724     1.9523 H       
  56 H56            0.7539     6.2371    -2.4128 H       
@<TRIPOS>BOND
   1    1    2 ar
   2    1    6 ar
   3    1   32 1
   4    2    3 ar
   5    2   33 1
   6    3    4 ar
   7    3   34 1
   8    4    7 1
   9    4    5 ar
  10    5    6 ar
  11    5    9 1
  12    6   17 1
  13    7    8 1
  14    7   35 1
  15    7   36 1
  16    8    9 am
  17    8   10 1
  18    9   18 2
  19   10   11 1
  20   10   37 1
  21   10   38 1
  22   11   12 ar
  23   11   16 ar
  24   12   13 ar
  25   12   39 1
  26   13   14 ar
  27   13   40 1
  28   14   15 ar
  29   14   19 1
  30   15   16 ar
  31   15   41 1
  32   16   42 1
  33   17   20 1
  34   19   21 ar
  35   19   25 ar
  36   20   26 1
  37   20   30 1
  38   20   43 1
  39   21   22 ar
  40   21   44 1
  41   22   23 ar
  42   23   24 ar
  43   24   25 ar
  44   24   45 1
  45   25   46 1
  46   26   27 1
  47   26   31 1
  48   26   47 1
  49   27   28 1
  50   27   48 1
  51   27   49 1
  52   28   29 1
  53   28   50 1
  54   28   51 1
  55   29   30 1
  56   29   52 1
  57   29   53 1
  58   30   54 1
  59   30   55 1
  60   31   56 1

#	End of record

