#	Name: ASD01813315
#	Creating user name:	WinNT
#	Creation time:	15. 06. 2019 19:30

#	Modifying user name:	WinNT
#	Modification time:	15. 06. 2019 19:30

#	Program:	/corina/corina34_cracker 3.40 0067  02.08.2006

@<TRIPOS>MOLECULE
ASD01813315
  43   46    0    0    0
SMALL
NO_CHARGES


@<TRIPOS>ATOM
   1 C1             0.3392     1.4545     0.6016 C.2     
   2 C2             0.3509     0.0532     0.6192 C.2     
   3 C3             1.5215    -0.6113     0.3977 C.2     
   4 C4             2.6959     0.1206     0.1557 C.2     
   5 N5             2.6556     1.4884     0.1445 N.am    
   6 C6             1.4798     2.1417     0.3668 C.2     
   7 C7             3.9003    -0.5600    -0.0721 C.2     
   8 C8             5.0469     0.1415    -0.3078 C.2     
   9 C9             5.0017     1.5480    -0.3191 C.2     
  10 C10            3.7753     2.2033    -0.0862 C.2     
  11 O11            3.7268     3.4217    -0.0945 O.2     
  12 C12            6.2182     2.3242    -0.5691 C.2     
  13 O13            6.1681     3.6722    -0.5786 O.3     
  14 O14            7.2737     1.7533    -0.7683 O.2     
  15 C15            3.9288    -2.0666    -0.0562 C.3     
  16 C16            3.7837    -2.5946    -1.4848 C.3     
  17 N17            3.9397    -4.0553    -1.4853 N.3     
  18 C18            3.7184    -4.5832    -2.7633 C.ar    
  19 C19            3.0019    -5.7718    -2.6931 C.ar    
  20 C20            2.7101    -6.0558    -1.2331 C.3     
  21 C21            2.9790    -4.6912    -0.5579 C.3     
  22 C22            4.1030    -4.0966    -4.0117 C.ar    
  23 C23            3.7781    -4.7919    -5.1575 C.ar    
  24 C24            3.0682    -5.9761    -5.0766 C.ar    
  25 C25            2.6811    -6.4644    -3.8419 C.ar    
  26 H26           -0.5848     1.9871     0.7717 H       
  27 H27           -0.5597    -0.4963     0.8070 H       
  28 H28            1.5453    -1.6910     0.4087 H       
  29 H29            1.4592     3.2215     0.3558 H       
  30 H30            5.9781    -0.3767    -0.4833 H       
  31 H31            6.9967     4.1411    -0.7480 H       
  32 H32            4.8754    -2.4077     0.3629 H       
  33 H33            3.1060    -2.4391     0.5541 H       
  34 H34            2.7978    -2.3344    -1.8700 H       
  35 H35            4.5505    -2.1471    -2.1172 H       
  36 H36            1.6707    -6.3551    -1.0982 H       
  37 H37            3.3859    -6.8181    -0.8455 H       
  38 H38            3.4253    -4.8284     0.4271 H       
  39 H39            2.0619    -4.1060    -0.4900 H       
  40 H40            4.6568    -3.1720    -4.0818 H       
  41 H41            4.0789    -4.4100    -6.1219 H       
  42 H42            2.8166    -6.5185    -5.9759 H       
  43 H43            2.1266    -7.3889    -3.7772 H       
@<TRIPOS>BOND
   1    1    2 1
   2    1    6 2
   3    1   26 1
   4    2    3 2
   5    2   27 1
   6    3    4 1
   7    3   28 1
   8    4    5 1
   9    4    7 2
  10    5    6 1
  11    5   10 am
  12    6   29 1
  13    7    8 1
  14    7   15 1
  15    8    9 2
  16    8   30 1
  17    9   10 1
  18    9   12 1
  19   10   11 2
  20   12   13 1
  21   12   14 2
  22   13   31 1
  23   15   16 1
  24   15   32 1
  25   15   33 1
  26   16   17 1
  27   16   34 1
  28   16   35 1
  29   17   18 1
  30   17   21 1
  31   18   19 ar
  32   18   22 ar
  33   19   20 1
  34   19   25 ar
  35   20   21 1
  36   20   36 1
  37   20   37 1
  38   21   38 1
  39   21   39 1
  40   22   23 ar
  41   22   40 1
  42   23   24 ar
  43   23   41 1
  44   24   25 ar
  45   24   42 1
  46   25   43 1

#	End of record

