#	Name: ASD02038192
#	Creating user name:	WinNT
#	Creation time:	15. 06. 2019 20:16

#	Modifying user name:	WinNT
#	Modification time:	15. 06. 2019 20:16

#	Program:	/corina/corina34_cracker 3.40 0067  02.08.2006

@<TRIPOS>MOLECULE
ASD02038192
  39   40    0    0    0
SMALL
NO_CHARGES


@<TRIPOS>ATOM
   1 C1            -0.0167     1.3782     0.0096 C.ar    
   2 C2             0.0021    -0.0041     0.0020 C.ar    
   3 C3             1.1726     2.0876     0.0021 C.ar    
   4 C4             2.3819     1.4152    -0.0136 C.ar    
   5 C5             2.4060     0.0345    -0.0213 C.ar    
   6 C6             1.2148    -0.6803    -0.0132 C.ar    
   7 Cl7           -1.5320     2.2252     0.0214 Cl      
   8 Cl8            1.1462     3.8233     0.0117 Cl      
   9 N9             1.2369    -2.0775    -0.0205 N.pl3   
  10 C10           -0.0200    -2.8301    -0.0120 C.3     
  11 C11            0.2833    -4.3297    -0.0226 C.3     
  12 N12           -0.9736    -5.0822    -0.0141 N.am    
  13 C13           -0.9523    -6.4298    -0.0212 C.2     
  14 O14            0.1075    -7.0194    -0.0345 O.2     
  15 C15           -2.2452    -7.2039    -0.0124 C.3     
  16 O16           -1.9619    -8.6045    -0.0223 O.3     
  17 C17           -3.0270    -9.4499    -0.0162 C.ar    
  18 C18           -2.8233   -10.8218    -0.0251 C.ar    
  19 C19           -4.3165    -8.9401     0.0048 C.ar    
  20 C20           -5.3996    -9.8003     0.0116 C.ar    
  21 C21           -5.1946   -11.1738    -0.0028 C.ar    
  22 C22           -3.9048   -11.6817    -0.0189 C.ar    
  23 O23           -6.2592   -12.0207     0.0039 O.3     
  24 F24           -6.6562    -9.3046     0.0325 F       
  25 H25           -0.9254    -0.5573     0.0083 H       
  26 H26            3.3079     1.9709    -0.0202 H       
  27 H27            3.3503    -0.4894    -0.0339 H       
  28 H28            2.0845    -2.5491    -0.0312 H       
  29 H29           -0.5870    -2.5804     0.8848 H       
  30 H30           -0.6044    -2.5714    -0.8950 H       
  31 H31            0.8502    -4.5794    -0.9195 H       
  32 H32            0.8677    -4.5884     0.8604 H       
  33 H33           -1.8212    -4.6106    -0.0034 H       
  34 H34           -2.8121    -6.9542     0.8844 H       
  35 H35           -2.8295    -6.9452    -0.8954 H       
  36 H36           -1.8188   -11.2182    -0.0373 H       
  37 H37           -4.4750    -7.8718     0.0163 H       
  38 H38           -3.7453   -12.7498    -0.0304 H       
  39 H39           -6.5785   -12.2580    -0.8775 H       
@<TRIPOS>BOND
   1    1    2 ar
   2    1    3 ar
   3    1    7 1
   4    2    6 ar
   5    2   25 1
   6    3    4 ar
   7    3    8 1
   8    4    5 ar
   9    4   26 1
  10    5    6 ar
  11    5   27 1
  12    6    9 1
  13    9   10 1
  14    9   28 1
  15   10   11 1
  16   10   29 1
  17   10   30 1
  18   11   12 1
  19   11   31 1
  20   11   32 1
  21   12   13 am
  22   12   33 1
  23   13   14 2
  24   13   15 1
  25   15   16 1
  26   15   34 1
  27   15   35 1
  28   16   17 1
  29   17   18 ar
  30   17   19 ar
  31   18   22 ar
  32   18   36 1
  33   19   20 ar
  34   19   37 1
  35   20   21 ar
  36   20   24 1
  37   21   22 ar
  38   21   23 1
  39   22   38 1
  40   23   39 1

#	End of record

