#	Name: ASD01151104
#	Creating user name:	WinNT
#	Creation time:	15. 06. 2019 19:05

#	Modifying user name:	WinNT
#	Modification time:	15. 06. 2019 19:05

#	Program:	/corina/corina34_cracker 3.40 0067  02.08.2006

@<TRIPOS>MOLECULE
ASD01151104
  54   57    0    0    0
SMALL
NO_CHARGES


@<TRIPOS>ATOM
   1 C1             0.3602    -0.4384    -0.9292 C.3     
   2 C2            -0.5773    -1.4974    -0.3456 C.3     
   3 C3             0.1169    -2.2072     0.8185 C.3     
   4 C4            -1.8564    -0.8249     0.1569 C.3     
   5 C5            -2.5402    -0.1257    -0.9897 C.2     
   6 C6            -2.5792    -0.5773    -2.3016 C.2     
   7 C7            -3.3019     0.3471    -3.0432 C.2     
   8 N8            -3.6396     0.4046    -4.3394 N.2     
   9 C9            -4.3462     1.4083    -4.8113 C.2     
  10 C10           -4.7112     1.4456    -6.2730 C.3     
  11 C11           -4.7601     2.4385    -3.9668 C.2     
  12 C12           -4.4239     2.3954    -2.6408 C.2     
  13 N13           -4.8208     3.4004    -1.7849 N.pl3   
  14 C14           -6.2470     3.6700    -1.5572 C.3     
  15 C15           -6.5176     5.1535    -1.8269 C.3     
  16 C16           -5.5732     6.0035    -0.9738 C.3     
  17 C17           -4.1233     5.6994    -1.3577 C.3     
  18 F18           -3.9340     5.9686    -2.7175 F       
  19 F19           -3.2618     6.4991    -0.5990 F       
  20 C20           -3.8256     4.2184    -1.0784 C.3     
  21 N21           -3.6873     1.3377    -2.1775 N.pl3   
  22 N22           -3.2002     1.0065    -0.9083 N.2     
  23 C23           -2.7798    -1.8680     0.7318 C.ar    
  24 C24           -3.1919    -2.9317    -0.0491 C.ar    
  25 C25           -4.0388    -3.8887     0.4776 C.ar    
  26 C26           -4.4741    -3.7818     1.7865 C.ar    
  27 Cl27          -5.5374    -4.9837     2.4488 Cl      
  28 C28           -4.0613    -2.7170     2.5674 C.ar    
  29 C29           -3.2099    -1.7637     2.0414 C.ar    
  30 H30            1.2715    -0.9175    -1.2872 H       
  31 H31           -0.1343     0.0673    -1.7585 H       
  32 H32            0.6114     0.2894    -0.1576 H       
  33 H33           -0.8285    -2.2252    -1.1172 H       
  34 H34            0.3680    -1.4794     1.5901 H       
  35 H35           -0.5510    -2.9617     1.2343 H       
  36 H36            1.0281    -2.6863     0.4605 H       
  37 H37           -1.6053    -0.0971     0.9285 H       
  38 H38           -2.1285    -1.4840    -2.6775 H       
  39 H39           -4.3055     0.5652    -6.7713 H       
  40 H40           -5.7963     1.4540    -6.3764 H       
  41 H41           -4.2959     2.3446    -6.7284 H       
  42 H42           -5.3400     3.2625    -4.3557 H       
  43 H43           -6.8466     3.0604    -2.2332 H       
  44 H44           -6.5032     3.4337    -0.5244 H       
  45 H45           -6.3475     5.3684    -2.8819 H       
  46 H46           -7.5505     5.3876    -1.5694 H       
  47 H47           -5.7804     7.0598    -1.1455 H       
  48 H48           -5.7265     5.7702     0.0798 H       
  49 H49           -3.8883     4.0259    -0.0073 H       
  50 H50           -2.8270     3.9708    -1.4383 H       
  51 H51           -2.8523    -3.0148    -1.0709 H       
  52 H52           -4.3609    -4.7195    -0.1326 H       
  53 H53           -4.4011    -2.6329     3.5891 H       
  54 H54           -2.8839    -0.9350     2.6524 H       
@<TRIPOS>BOND
   1    1    2 1
   2    1   30 1
   3    1   31 1
   4    1   32 1
   5    2    3 1
   6    2    4 1
   7    2   33 1
   8    3   34 1
   9    3   35 1
  10    3   36 1
  11    4    5 1
  12    4   23 1
  13    4   37 1
  14    5   22 2
  15    5    6 1
  16    6    7 2
  17    6   38 1
  18    7   21 1
  19    7    8 1
  20    8    9 2
  21    9   10 1
  22    9   11 1
  23   10   39 1
  24   10   40 1
  25   10   41 1
  26   11   12 2
  27   11   42 1
  28   12   13 1
  29   12   21 1
  30   13   20 1
  31   13   14 1
  32   14   15 1
  33   14   43 1
  34   14   44 1
  35   15   16 1
  36   15   45 1
  37   15   46 1
  38   16   17 1
  39   16   47 1
  40   16   48 1
  41   17   18 1
  42   17   19 1
  43   17   20 1
  44   20   49 1
  45   20   50 1
  46   21   22 1
  47   23   29 ar
  48   23   24 ar
  49   24   25 ar
  50   24   51 1
  51   25   26 ar
  52   25   52 1
  53   26   27 1
  54   26   28 ar
  55   28   29 ar
  56   28   53 1
  57   29   54 1

#	End of record

