#	Name: ASD05213028
#	Creating user name:	WinNT
#	Creation time:	15. 06. 2019 20:57

#	Modifying user name:	WinNT
#	Modification time:	15. 06. 2019 20:57

#	Program:	/corina/corina34_cracker 3.40 0067  02.08.2006

@<TRIPOS>MOLECULE
ASD05213028
  26   27    0    0    0
SMALL
NO_CHARGES


@<TRIPOS>ATOM
   1 S1            -0.0218     1.7577     0.0117 S.o2    
   2 C2             0.0021    -0.0041     0.0020 C.2     
   3 N3             0.1417    -0.7503     1.0558 N.2     
   4 C4             0.1132    -2.0570     0.6751 C.ar    
   5 C5            -0.0575    -2.0626    -0.7177 C.ar    
   6 O6            -0.1273    -0.7673    -1.0953 O.3     
   7 C7             0.2143    -3.2660     1.3655 C.ar    
   8 C8             0.1467    -4.4479     0.6834 C.ar    
   9 C9            -0.0226    -4.4578    -0.6979 C.ar    
  10 C10           -0.1242    -3.2686    -1.3985 C.ar    
  11 O11           -0.0876    -5.6417    -1.3627 O.3     
  12 C12            0.0250    -6.8321    -0.5801 C.3     
  13 C13           -0.0701    -8.0548    -1.4950 C.3     
  14 O14            1.3357     2.1775     0.0010 O.2     
  15 O15           -0.9650     2.1517    -0.9755 O.2     
  16 N16           -0.6463     2.2315     1.4705 N.am    
  17 H17            0.3461    -3.2672     2.4374 H       
  18 H18            0.2256    -5.3817     1.2202 H       
  19 H19           -0.2552    -3.2799    -2.4705 H       
  20 H20            0.9851    -6.8383    -0.0641 H       
  21 H21           -0.7814    -6.8629     0.1525 H       
  22 H22           -1.0302    -8.0486    -2.0110 H       
  23 H23            0.7363    -8.0239    -2.2277 H       
  24 H24            0.0158    -8.9628    -0.8981 H       
  25 H25           -0.9154     1.5654     2.1222 H       
  26 H26           -0.7429     3.1751     1.6732 H       
@<TRIPOS>BOND
   1    1    2 1
   2    1   14 2
   3    1   15 2
   4    1   16 am
   5    2    3 2
   6    2    6 1
   7    3    4 1
   8    4    5 ar
   9    4    7 ar
  10    5    6 1
  11    5   10 ar
  12    7    8 ar
  13    7   17 1
  14    8    9 ar
  15    8   18 1
  16    9   10 ar
  17    9   11 1
  18   10   19 1
  19   11   12 1
  20   12   13 1
  21   12   20 1
  22   12   21 1
  23   13   22 1
  24   13   23 1
  25   13   24 1
  26   16   25 1
  27   16   26 1

#	End of record

