#	Name: ASD00431054
#	Creating user name:	WinNT
#	Creation time:	15. 06. 2019 18:35

#	Modifying user name:	WinNT
#	Modification time:	15. 06. 2019 18:35

#	Program:	/corina/corina34_cracker 3.40 0067  02.08.2006

@<TRIPOS>MOLECULE
ASD00431054
  49   51    0    0    0
SMALL
NO_CHARGES


@<TRIPOS>ATOM
   1 C1            -0.0641     1.4229    -0.1024 C.ar    
   2 C2            -0.0440     0.0299    -0.0802 C.ar    
   3 C3             1.1752    -0.6438    -0.0489 C.ar    
   4 C4             2.3558     0.0711    -0.0401 C.ar    
   5 C5             2.3300     1.4539    -0.0623 C.ar    
   6 C6             1.1225     2.1278    -0.0934 C.ar    
   7 C7            -1.3166    -0.7334    -0.0893 C.ar    
   8 C8            -1.2965    -2.1265    -0.0670 C.ar    
   9 C9            -2.4831    -2.8314    -0.0751 C.ar    
  10 C10           -3.6906    -2.1574    -0.1057 C.ar    
  11 C11           -3.7164    -0.7747    -0.1284 C.ar    
  12 C12           -2.5359    -0.0596    -0.1143 C.ar    
  13 C13            3.6223     2.2291    -0.0521 C.3     
  14 N14            4.0650     2.4586    -1.4296 N.pl3   
  15 C15            5.1618     3.2295    -1.6732 C.2     
  16 C16            5.1997     4.6635    -1.1873 C.3     
  17 C17            5.0835     5.5907    -2.3994 C.3     
  18 C18            6.4443     5.8401    -3.0215 C.3     
  19 C19            7.0628     4.6162    -3.6701 C.3     
  20 C20            7.4275     3.5667    -2.6175 C.3     
  21 C21            6.2071     2.7143    -2.3381 C.2     
  22 C22            6.1660     1.3855    -2.7831 C.2     
  23 O23            5.2352     0.6688    -2.4716 O.2     
  24 C24            7.2760     0.8458    -3.6478 C.3     
  25 H25           -1.0063     1.9500    -0.1312 H       
  26 H26            1.1965    -1.7235    -0.0312 H       
  27 H27            3.3014    -0.4500    -0.0155 H       
  28 H28            1.1081     3.2076    -0.1106 H       
  29 H29           -0.3542    -2.6537    -0.0438 H       
  30 H30           -2.4687    -3.9111    -0.0579 H       
  31 H31           -4.6168    -2.7130    -0.1123 H       
  32 H32           -4.6620    -0.2535    -0.1526 H       
  33 H33           -2.5572     1.0200    -0.1316 H       
  34 H34            3.4674     3.1872     0.4442 H       
  35 H35            4.3825     1.6610     0.4840 H       
  36 H36            3.5774     2.0617    -2.1682 H       
  37 H37            4.3658     4.8422    -0.5084 H       
  38 H38            6.1417     4.8508    -0.6720 H       
  39 H39            4.4294     5.1314    -3.1405 H       
  40 H40            4.6541     6.5414    -2.0835 H       
  41 H41            6.3428     6.6191    -3.7771 H       
  42 H42            7.1198     6.2002    -2.2455 H       
  43 H43            6.3509     4.1853    -4.3741 H       
  44 H44            7.9634     4.9121    -4.2081 H       
  45 H45            8.2348     2.9374    -2.9922 H       
  46 H46            7.7421     4.0629    -1.6994 H       
  47 H47            8.0541     0.4183    -3.0153 H       
  48 H48            6.8799     0.0744    -4.3081 H       
  49 H49            7.6970     1.6544    -4.2453 H       
@<TRIPOS>BOND
   1    1    2 ar
   2    1    6 ar
   3    1   25 1
   4    2    3 ar
   5    2    7 1
   6    3    4 ar
   7    3   26 1
   8    4    5 ar
   9    4   27 1
  10    5    6 ar
  11    5   13 1
  12    6   28 1
  13    7    8 ar
  14    7   12 ar
  15    8    9 ar
  16    8   29 1
  17    9   10 ar
  18    9   30 1
  19   10   11 ar
  20   10   31 1
  21   11   12 ar
  22   11   32 1
  23   12   33 1
  24   13   14 1
  25   13   34 1
  26   13   35 1
  27   14   15 1
  28   14   36 1
  29   15   16 1
  30   15   21 2
  31   16   17 1
  32   16   37 1
  33   16   38 1
  34   17   18 1
  35   17   39 1
  36   17   40 1
  37   18   19 1
  38   18   41 1
  39   18   42 1
  40   19   20 1
  41   19   43 1
  42   19   44 1
  43   20   21 1
  44   20   45 1
  45   20   46 1
  46   21   22 1
  47   22   23 2
  48   22   24 1
  49   24   47 1
  50   24   48 1
  51   24   49 1

#	End of record

