#	Name: ASD03330663
#	Creating user name:	WinNT
#	Creation time:	15. 06. 2019 20:37

#	Modifying user name:	WinNT
#	Modification time:	15. 06. 2019 20:37

#	Program:	/corina/corina34_cracker 3.40 0067  02.08.2006

@<TRIPOS>MOLECULE
ASD03330663
  62   64    0    0    0
SMALL
NO_CHARGES


@<TRIPOS>ATOM
   1 C1            -0.3235     2.0834    -1.2105 C.2     
   2 N2            -0.5104     0.7973    -1.5887 N.pl3   
   3 C3             1.0133     2.2531    -1.0072 C.2     
   4 N4             1.6238     1.0801    -1.2792 N.2     
   5 C5             0.7164     0.1997    -1.6354 C.2     
   6 C6             0.9789    -1.2003    -2.0214 C.2     
   7 C7             1.6745     3.4955    -0.5695 C.2     
   8 O8             1.0131     4.4933    -0.3552 O.2     
   9 C9             3.6693     4.7605     0.0284 C.3     
  10 N10            3.0120     3.5257    -0.4068 N.am    
  11 C11            3.6287     4.8492     1.5552 C.3     
  12 C12            4.2382     3.5809     2.1561 C.3     
  13 C13            4.4299     6.0681     2.0168 C.3     
  14 C14            2.1775     4.9871     2.0197 C.3     
  15 C15            5.1027     4.7574    -0.4367 C.2     
  16 N16            5.7539     5.9230    -0.6212 N.am    
  17 O17            5.6704     3.7061    -0.6450 O.2     
  18 C18            7.1077     5.9251    -1.1809 C.3     
  19 C19           -1.8058     0.1753    -1.8766 C.3     
  20 C20           -2.6143     1.0984    -2.7935 C.3     
  21 C21           -3.4080     2.0932    -1.9525 C.3     
  22 N22           -2.6734     2.4596    -0.7398 N.3     
  23 C23           -1.4031     3.1246    -1.0656 C.3     
  24 C24           -3.4964     3.2992     0.1409 C.3     
  25 C25            2.2305    -1.6323    -2.0171 C.2     
  26 C26            2.5963    -3.0398    -2.4028 C.3     
  27 C27            1.3468    -3.9251    -2.3477 C.3     
  28 C28            0.2079    -3.1942    -3.0717 C.3     
  29 O29           -0.0721    -1.9851    -2.3581 O.3     
  30 H30            3.1504     5.6184    -0.3993 H       
  31 H31            3.5395     2.7298    -0.5777 H       
  32 H32            5.2721     3.4827     1.8252 H       
  33 H33            4.2093     3.6441     3.2439 H       
  34 H34            3.6673     2.7125     1.8273 H       
  35 H35            3.9739     6.9746     1.6188 H       
  36 H36            4.4319     6.1105     3.1060 H       
  37 H37            5.4548     5.9877     1.6545 H       
  38 H38            1.6066     4.1187     1.6909 H       
  39 H39            2.1485     5.0502     3.1075 H       
  40 H40            1.7433     5.8906     1.5917 H       
  41 H41            5.3261     6.7604    -0.3833 H       
  42 H42            7.4685     6.9509    -1.2555 H       
  43 H43            7.7703     5.3532    -0.5314 H       
  44 H44            7.0916     5.4726    -2.1725 H       
  45 H45           -1.6477    -0.7827    -2.3720 H       
  46 H46           -2.3500     0.0194    -0.9452 H       
  47 H47           -1.9356     1.6406    -3.4519 H       
  48 H48           -3.3012     0.5020    -3.3939 H       
  49 H49           -3.5958     2.9906    -2.5420 H       
  50 H50           -4.3609     1.6445    -1.6718 H       
  51 H51           -1.1378     3.8155    -0.2654 H       
  52 H52           -1.5085     3.6729    -2.0017 H       
  53 H53           -4.3948     2.7529     0.4281 H       
  54 H54           -2.9267     3.5568     1.0337 H       
  55 H55           -3.7784     4.2109    -0.3858 H       
  56 H56            3.0161    -0.9504    -1.7269 H       
  57 H57            3.0014    -3.0457    -3.4147 H       
  58 H58            3.3446    -3.4238    -1.7095 H       
  59 H59            1.5472    -4.8752    -2.8428 H       
  60 H60            1.0678    -4.1028    -1.3091 H       
  61 H61            0.5115    -2.9607    -4.0922 H       
  62 H62           -0.6814    -3.8243    -3.0876 H       
@<TRIPOS>BOND
   1    1    2 1
   2    1    3 2
   3    1   23 1
   4    2   19 1
   5    2    5 1
   6    3    4 1
   7    3    7 1
   8    4    5 2
   9    5    6 1
  10    6   25 2
  11    6   29 1
  12    7    8 2
  13    7   10 am
  14    9   10 1
  15    9   11 1
  16    9   15 1
  17    9   30 1
  18   10   31 1
  19   11   12 1
  20   11   13 1
  21   11   14 1
  22   12   32 1
  23   12   33 1
  24   12   34 1
  25   13   35 1
  26   13   36 1
  27   13   37 1
  28   14   38 1
  29   14   39 1
  30   14   40 1
  31   15   16 am
  32   15   17 2
  33   16   18 1
  34   16   41 1
  35   18   42 1
  36   18   43 1
  37   18   44 1
  38   19   20 1
  39   19   45 1
  40   19   46 1
  41   20   21 1
  42   20   47 1
  43   20   48 1
  44   21   22 1
  45   21   49 1
  46   21   50 1
  47   22   23 1
  48   22   24 1
  49   23   51 1
  50   23   52 1
  51   24   53 1
  52   24   54 1
  53   24   55 1
  54   25   26 1
  55   25   56 1
  56   26   27 1
  57   26   57 1
  58   26   58 1
  59   27   28 1
  60   27   59 1
  61   27   60 1
  62   28   29 1
  63   28   61 1
  64   28   62 1

#	End of record

