#	Name: ASD00310438
#	Creating user name:	WinNT
#	Creation time:	15. 06. 2019 18:34

#	Modifying user name:	WinNT
#	Modification time:	15. 06. 2019 18:34

#	Program:	/corina/corina34_cracker 3.40 0067  02.08.2006

@<TRIPOS>MOLECULE
ASD00310438
  34   36    0    0    0
SMALL
NO_CHARGES


@<TRIPOS>ATOM
   1 N1            -0.0163     1.3485     0.0095 N.pl3   
   2 C2             0.0021    -0.0041     0.0020 C.2     
   3 C3             1.2929    -0.4499    -0.0127 C.2     
   4 C4             2.1495     0.7499    -0.0144 C.ar    
   5 C5             3.5278     0.9474    -0.0265 C.ar    
   6 C6             4.0386     2.2361    -0.0245 C.ar    
   7 C7             3.1596     3.3409    -0.0101 C.ar    
   8 C8             1.7826     3.1388     0.0019 C.ar    
   9 C9             1.2711     1.8487    -0.0001 C.ar    
  10 C10            1.7394    -1.8479    -0.0240 C.2     
  11 O11            2.9274    -2.1067    -0.0364 O.2     
  12 O12            0.8321    -2.8454    -0.0208 O.3     
  13 C13            5.5041     2.4536    -0.0368 C.ar    
  14 C14            6.0731     3.3285    -0.9621 C.ar    
  15 C15            7.4372     3.5286    -0.9708 C.ar    
  16 C16            8.2444     2.8603    -0.0599 C.ar    
  17 C17            7.6812     1.9887     0.8627 C.ar    
  18 C18            6.3172     1.7884     0.8806 C.ar    
  19 O19            9.5883     3.0594    -0.0715 O.3     
  20 C20           10.3591     2.3400     0.8931 C.3     
  21 C21            3.6862     4.6726    -0.0075 C.1     
  22 N22            4.1039     5.7290    -0.0055 N.1     
  23 H23           -0.8205     1.8908     0.0163 H       
  24 H24           -0.8731    -0.6368     0.0075 H       
  25 H25            4.1966     0.0994    -0.0371 H       
  26 H26            1.1124     3.9856     0.0132 H       
  27 H27            1.1741    -3.7499    -0.0286 H       
  28 H28            5.4458     3.8483    -1.6711 H       
  29 H29            7.8784     4.2057    -1.6873 H       
  30 H30            8.3118     1.4704     1.5699 H       
  31 H31            5.8792     1.1139     1.6016 H       
  32 H32           11.4135     2.5898     0.7750 H       
  33 H33           10.0313     2.6123     1.8964 H       
  34 H34           10.2203     1.2693     0.7436 H       
@<TRIPOS>BOND
   1    1    2 1
   2    1    9 1
   3    1   23 1
   4    2    3 2
   5    2   24 1
   6    3    4 1
   7    3   10 1
   8    4    5 ar
   9    4    9 ar
  10    5    6 ar
  11    5   25 1
  12    6    7 ar
  13    6   13 1
  14    7    8 ar
  15    7   21 1
  16    8    9 ar
  17    8   26 1
  18   10   11 2
  19   10   12 1
  20   12   27 1
  21   13   14 ar
  22   13   18 ar
  23   14   15 ar
  24   14   28 1
  25   15   16 ar
  26   15   29 1
  27   16   17 ar
  28   16   19 1
  29   17   18 ar
  30   17   30 1
  31   18   31 1
  32   19   20 1
  33   20   32 1
  34   20   33 1
  35   20   34 1
  36   21   22 3

#	End of record

