#	Name: ASD00310065
#	Creating user name:	WinNT
#	Creation time:	15. 06. 2019 18:33

#	Modifying user name:	WinNT
#	Modification time:	15. 06. 2019 18:33

#	Program:	/corina/corina34_cracker 3.40 0067  02.08.2006

@<TRIPOS>MOLECULE
ASD00310065
  19   20    0    0    0
SMALL
NO_CHARGES


@<TRIPOS>ATOM
   1 N1            -0.0178     1.4609     0.0101 N.pl3   
   2 C2             0.0021    -0.0041     0.0020 C.3     
   3 C3             1.4907    -0.3875    -0.0143 C.3     
   4 C4             2.2245     0.9354    -0.0142 C.ar    
   5 C5             3.5786     1.2174    -0.0263 C.ar    
   6 C6             4.0187     2.5256    -0.0237 C.ar    
   7 C7             3.0881     3.5682    -0.0092 C.ar    
   8 C8             1.7253     3.2818     0.0025 C.ar    
   9 C9             1.2875     1.9585     0.0003 C.ar    
  10 C10            3.5353     4.9286    -0.0060 C.1     
  11 N11            3.8900     6.0078    -0.0034 N.1     
  12 Br12           5.8711     2.9052    -0.0390 Br      
  13 H13           -0.8202     2.0058     0.0170 H       
  14 H14           -0.4788    -0.3936     0.8993 H       
  15 H15           -0.4959    -0.3840    -0.8900 H       
  16 H16            1.7447    -0.9633     0.8757 H       
  17 H17            1.7276    -0.9537    -0.9150 H       
  18 H18            4.2954     0.4096    -0.0374 H       
  19 H19            1.0057     4.0872     0.0137 H       
@<TRIPOS>BOND
   1    1    2 1
   2    1    9 1
   3    1   13 1
   4    2    3 1
   5    2   14 1
   6    2   15 1
   7    3    4 1
   8    3   16 1
   9    3   17 1
  10    4    5 ar
  11    4    9 ar
  12    5    6 ar
  13    5   18 1
  14    6    7 ar
  15    6   12 1
  16    7    8 ar
  17    7   10 1
  18    8    9 ar
  19    8   19 1
  20   10   11 3

#	End of record

