#	Name: ASD02198112
#	Creating user name:	WinNT
#	Creation time:	15. 06. 2019 20:18

#	Modifying user name:	WinNT
#	Modification time:	15. 06. 2019 20:18

#	Program:	/corina/corina34_cracker 3.40 0067  02.08.2006

@<TRIPOS>MOLECULE
ASD02198112
  48   50    0    0    0
SMALL
NO_CHARGES


@<TRIPOS>ATOM
   1 C1            -0.0134     1.3782     0.0899 C.2     
   2 C2             0.0023     0.0012     0.0301 C.2     
   3 C3            -1.1890    -0.7934     0.0176 C.1     
   4 S4             1.5724     2.0045     0.0878 S.3     
   5 C5             2.2771     0.3979     0.0053 C.2     
   6 C6             1.2829    -0.5479    -0.0173 C.2     
   7 C7             3.6599     0.1208    -0.0330 C.2     
   8 C8             4.6299     1.2249    -0.1479 C.2     
   9 O9             4.0528    -1.0324     0.0291 O.2     
  10 N10            1.5273    -1.9121    -0.0804 N.pl3   
  11 N11           -1.1552     2.1444     0.1389 N.pl3   
  12 N12           -2.1340    -1.4238     0.0078 N.1     
  13 C13            4.3548     2.5419    -0.3409 C.2     
  14 C14           -1.0552     3.6047     0.2008 C.3     
  15 C15           -0.9170     4.1583    -1.1940 C.2     
  16 C16           -2.3162     4.1750     0.8532 C.3     
  17 O17           -0.8090     5.4829    -1.3827 O.3     
  18 O18            5.4953     3.2422    -0.3924 O.3     
  19 C19            6.5698     2.4410    -0.2390 C.ar    
  20 C20            6.1009     1.1299    -0.0707 C.ar    
  21 C21            7.9384     2.6809    -0.2178 C.ar    
  22 C22            8.8181     1.6350    -0.0382 C.ar    
  23 C23            8.3522     0.3385     0.1221 C.ar    
  24 C24            6.9980     0.0820     0.1111 C.ar    
  25 O25           -0.9033     3.4099    -2.1425 O.2     
  26 C26           -0.6790     5.9451    -2.7530 C.3     
  27 C27           -2.3908     3.7123     2.3096 C.3     
  28 S28           -3.8858     4.3884     3.0831 S.3     
  29 C29           -3.7984     3.7407     4.7752 C.3     
  30 H30            2.4396    -2.2404    -0.1111 H       
  31 H31            0.7861    -2.5376    -0.0939 H       
  32 H32           -2.0262     1.7177     0.1324 H       
  33 H33            3.3642     2.9611    -0.4385 H       
  34 H34           -0.1826     3.8845     0.7909 H       
  35 H35           -2.2822     5.2639     0.8192 H       
  36 H36           -3.1955     3.8220     0.3143 H       
  37 H37            8.3127     3.6863    -0.3423 H       
  38 H38            9.8808     1.8269    -0.0225 H       
  39 H39            9.0525    -0.4718     0.2616 H       
  40 H40            6.6355    -0.9277     0.2360 H       
  41 H41           -0.6006     7.0322    -2.7639 H       
  42 H42            0.2161     5.5118    -3.1993 H       
  43 H43           -1.5550     5.6383    -3.3246 H       
  44 H44           -2.4248     2.6234     2.3436 H       
  45 H45           -1.5115     4.0653     2.8484 H       
  46 H46           -3.7973     2.6510     4.7475 H       
  47 H47           -2.8840     4.0930     5.2524 H       
  48 H48           -4.6616     4.0888     5.3426 H       
@<TRIPOS>BOND
   1    1    2 2
   2    1    4 1
   3    1   11 1
   4    2    3 1
   5    2    6 1
   6    3   12 3
   7    4    5 1
   8    5    6 2
   9    5    7 1
  10    6   10 1
  11    7    8 1
  12    7    9 2
  13    8   13 2
  14    8   20 1
  15   10   30 1
  16   10   31 1
  17   11   14 1
  18   11   32 1
  19   13   18 1
  20   13   33 1
  21   14   16 1
  22   14   15 1
  23   14   34 1
  24   15   25 2
  25   15   17 1
  26   16   27 1
  27   16   35 1
  28   16   36 1
  29   17   26 1
  30   18   19 1
  31   19   20 ar
  32   19   21 ar
  33   20   24 ar
  34   21   22 ar
  35   21   37 1
  36   22   23 ar
  37   22   38 1
  38   23   24 ar
  39   23   39 1
  40   24   40 1
  41   26   41 1
  42   26   42 1
  43   26   43 1
  44   27   28 1
  45   27   44 1
  46   27   45 1
  47   28   29 1
  48   29   46 1
  49   29   47 1
  50   29   48 1

#	End of record

