#	Name: ASD00069294
#	Creating user name:	WinNT
#	Creation time:	15. 06. 2019 18:29

#	Modifying user name:	WinNT
#	Modification time:	15. 06. 2019 18:29

#	Program:	/corina/corina34_cracker 3.40 0067  02.08.2006

@<TRIPOS>MOLECULE
ASD00069294
  59   60    0    0    0
SMALL
NO_CHARGES


@<TRIPOS>ATOM
   1 N1            -0.0178     1.4650     0.0101 N.am    
   2 C2             0.0021    -0.0041     0.0020 C.3     
   3 C3             0.8803    -0.4916     1.1586 C.3     
   4 C4             2.2627     0.1563     1.0525 C.3     
   5 C5             2.1248     1.6768     1.1584 C.3     
   6 C6             1.2607     2.1889     0.0018 C.3     
   7 C7            -1.1868     2.1359     0.0193 C.2     
   8 O8            -2.2375     1.5256     0.0210 O.2     
   9 O9            -1.1902     3.4822     0.0266 O.3     
  10 C10            4.4930     0.3842     2.1554 C.3     
  11 C11            3.1537    -0.3549     2.1863 C.3     
  12 C12            2.4641    -0.1050     3.5291 C.3     
  13 N13            3.3848    -1.7915     2.0160 N.am    
  14 C14            4.1469    -2.4613     2.9031 C.2     
  15 O15            4.6424    -1.8737     3.8442 O.2     
  16 O16            4.3593    -3.7816     2.7466 O.3     
  17 C17            5.1902    -4.4380     3.7401 C.3     
  18 C18            5.3149    -5.9015     3.4030 C.ar    
  19 C19            6.3442    -6.3383     2.5902 C.ar    
  20 C20            6.4585    -7.6808     2.2810 C.ar    
  21 C21            5.5438    -8.5865     2.7850 C.ar    
  22 C22            4.5150    -8.1498     3.5985 C.ar    
  23 C23            4.4032    -6.8079     3.9112 C.ar    
  24 C24           -2.4856     4.1381     0.0364 C.3     
  25 C25           -3.2605     3.7182     1.2870 C.3     
  26 C26           -2.2890     5.6554     0.0437 C.3     
  27 C27           -3.2723     3.7317    -1.2114 C.3     
  28 H28           -1.0118    -0.3840     0.1278 H       
  29 H29            0.4128    -0.3587    -0.9433 H       
  30 H30            0.4202    -0.2139     2.1069 H       
  31 H31            0.9816    -1.5757     1.1066 H       
  32 H32            2.7120    -0.1016     0.0934 H       
  33 H33            1.6530     1.9341     2.1067 H       
  34 H34            3.1119     2.1361     1.1062 H       
  35 H35            1.7740     2.0131    -0.9436 H       
  36 H36            1.0772     3.2560     0.1274 H       
  37 H37            4.3210     1.4531     2.2821 H       
  38 H38            5.1277     0.0200     2.9632 H       
  39 H39            4.9842     0.2062     1.1988 H       
  40 H40            1.5100    -0.6315     3.5511 H       
  41 H41            3.0989    -0.4692     4.3369 H       
  42 H42            2.2922     0.9639     3.6558 H       
  43 H43            2.9892    -2.2607     1.2648 H       
  44 H44            6.1797    -3.9808     3.7455 H       
  45 H45            4.7343    -4.3293     4.7242 H       
  46 H46            7.0588    -5.6308     2.1965 H       
  47 H47            7.2623    -8.0220     1.6455 H       
  48 H48            5.6327    -9.6352     2.5428 H       
  49 H49            3.8002    -8.8573     3.9919 H       
  50 H50            3.6016    -6.4672     4.5498 H       
  51 H51           -2.7000     4.0076     2.1759 H       
  52 H52           -4.2329     4.2105     1.2943 H       
  53 H53           -3.4005     2.6372     1.2818 H       
  54 H54           -1.7370     5.9545    -0.8473 H       
  55 H55           -3.2615     6.1477     0.0510 H       
  56 H56           -1.7285     5.9448     0.9326 H       
  57 H57           -3.4124     2.6508    -1.2166 H       
  58 H58           -4.2448     4.2241    -1.2041 H       
  59 H59           -2.7203     4.0309    -2.1024 H       
@<TRIPOS>BOND
   1    1    2 1
   2    1    6 1
   3    1    7 am
   4    2    3 1
   5    2   28 1
   6    2   29 1
   7    3    4 1
   8    3   30 1
   9    3   31 1
  10    4    5 1
  11    4   11 1
  12    4   32 1
  13    5    6 1
  14    5   33 1
  15    5   34 1
  16    6   35 1
  17    6   36 1
  18    7    8 2
  19    7    9 1
  20    9   24 1
  21   10   11 1
  22   10   37 1
  23   10   38 1
  24   10   39 1
  25   11   12 1
  26   11   13 1
  27   12   40 1
  28   12   41 1
  29   12   42 1
  30   13   14 am
  31   13   43 1
  32   14   15 2
  33   14   16 1
  34   16   17 1
  35   17   18 1
  36   17   44 1
  37   17   45 1
  38   18   19 ar
  39   18   23 ar
  40   19   20 ar
  41   19   46 1
  42   20   21 ar
  43   20   47 1
  44   21   22 ar
  45   21   48 1
  46   22   23 ar
  47   22   49 1
  48   23   50 1
  49   24   25 1
  50   24   27 1
  51   24   26 1
  52   25   51 1
  53   25   52 1
  54   25   53 1
  55   26   54 1
  56   26   55 1
  57   26   56 1
  58   27   57 1
  59   27   58 1
  60   27   59 1

#	End of record

