#	Name: ASD01884217
#	Creating user name:	WinNT
#	Creation time:	15. 06. 2019 19:47

#	Modifying user name:	WinNT
#	Modification time:	15. 06. 2019 19:47

#	Program:	/corina/corina34_cracker 3.40 0067  02.08.2006

@<TRIPOS>MOLECULE
ASD01884217
  40   43    0    0    0
SMALL
NO_CHARGES


@<TRIPOS>ATOM
   1 C1            -0.0169     1.3922     0.0097 C.ar    
   2 C2             0.0021    -0.0041     0.0020 C.ar    
   3 C3            -1.1684    -0.7204     0.0093 C.ar    
   4 C4            -2.4132    -0.0698     0.0242 C.ar    
   5 C5            -2.4167     1.3273     0.0317 C.ar    
   6 C6            -1.2434     2.0549     0.0308 C.ar    
   7 C7             1.2497     2.1592     0.0017 C.ar    
   8 N8            -3.6707    -0.6446     0.0326 N.am    
   9 C9            -4.7415     0.1547     0.0466 C.2     
  10 S10           -4.1179     1.8128     0.0499 S.3     
  11 O11           -5.9095    -0.1874     0.0549 O.2     
  12 C12           -3.8261    -2.1013     0.0257 C.3     
  13 C13           -3.8668    -2.6167     1.4657 C.3     
  14 C14           -4.1426    -4.1070     1.6751 C.3     
  15 C15           -2.7389    -3.5477     1.9149 C.3     
  16 C16            1.5790     2.9712    -1.0984 C.ar    
  17 C17            2.7765     3.6887    -1.0922 C.ar    
  18 C18            3.6299     3.6000    -0.0123 C.ar    
  19 C19            3.3093     2.8018     1.0724 C.ar    
  20 C20            2.1235     2.0859     1.0895 C.ar    
  21 C21            0.6913     3.0611    -2.2185 C.1     
  22 N22           -0.0129     3.1325    -3.1070 N.1     
  23 O23            1.8157     1.3050     2.1578 O.3     
  24 C24            2.7609     1.2690     3.2289 C.3     
  25 H25            0.9477    -0.5256    -0.0101 H       
  26 H26           -1.1320    -1.7998     0.0032 H       
  27 H27           -1.2757     3.1344     0.0367 H       
  28 H28           -4.7543    -2.3653    -0.4811 H       
  29 H29           -2.9845    -2.5540    -0.4986 H       
  30 H30           -4.2699    -1.9218     2.2024 H       
  31 H31           -4.7268    -4.3926     2.5498 H       
  32 H32           -4.2951    -4.7202     0.7870 H       
  33 H33           -1.9678    -3.7930     1.1846 H       
  34 H34           -2.3995    -3.4654     2.9475 H       
  35 H35            3.0351     4.3137    -1.9342 H       
  36 H36            4.5552     4.1570    -0.0131 H       
  37 H37            3.9858     2.7401     1.9121 H       
  38 H38            3.7156     0.8955     2.8585 H       
  39 H39            2.8946     2.2739     3.6295 H       
  40 H40            2.3936     0.6101     4.0157 H       
@<TRIPOS>BOND
   1    1    2 ar
   2    1    7 1
   3    1    6 ar
   4    2    3 ar
   5    2   25 1
   6    3    4 ar
   7    3   26 1
   8    4    5 ar
   9    4    8 1
  10    5    6 ar
  11    5   10 1
  12    6   27 1
  13    7   16 ar
  14    7   20 ar
  15    8    9 am
  16    8   12 1
  17    9   10 1
  18    9   11 2
  19   12   13 1
  20   12   28 1
  21   12   29 1
  22   13   14 1
  23   13   15 1
  24   13   30 1
  25   14   15 1
  26   14   31 1
  27   14   32 1
  28   15   33 1
  29   15   34 1
  30   16   17 ar
  31   16   21 1
  32   17   18 ar
  33   17   35 1
  34   18   19 ar
  35   18   36 1
  36   19   20 ar
  37   19   37 1
  38   20   23 1
  39   21   22 3
  40   23   24 1
  41   24   38 1
  42   24   39 1
  43   24   40 1

#	End of record

