#	Name: ASD01816835
#	Creating user name:	WinNT
#	Creation time:	15. 06. 2019 19:36

#	Modifying user name:	WinNT
#	Modification time:	15. 06. 2019 19:36

#	Program:	/corina/corina34_cracker 3.40 0067  02.08.2006

@<TRIPOS>MOLECULE
ASD01816835
  56   59    0    0    0
SMALL
NO_CHARGES


@<TRIPOS>ATOM
   1 C1            -0.0168     1.3878     0.0097 C.ar    
   2 C2             0.0021    -0.0041     0.0020 C.ar    
   3 C3             1.1793    -0.6898    -0.0129 C.ar    
   4 C4             2.3945     0.0119    -0.0208 C.ar    
   5 C5             2.3847     1.4312    -0.0131 C.ar    
   6 C6             1.1440     2.1075     0.0025 C.ar    
   7 C7             3.6291    -0.6651    -0.0357 C.ar    
   8 C8             4.7732     0.0787    -0.0422 C.ar    
   9 C9             4.6943     1.4798    -0.0341 C.ar    
  10 N10            3.5329     2.1049    -0.0196 N.ar    
  11 C11            5.9447     2.2754    -0.0409 C.2     
  12 N12            5.8867     3.6219    -0.0333 N.am    
  13 O13            7.0221     1.7137    -0.0534 O.2     
  14 C14            7.1227     4.4083    -0.0400 C.3     
  15 C15            7.6098     4.5849    -1.4815 C.3     
  16 C16            6.8555     5.7880     0.5696 C.3     
  17 C17            8.1316     6.6297     0.4865 C.3     
  18 O18            8.5474     6.7287    -0.8771 O.3     
  19 C19            8.8567     5.4731    -1.4853 C.3     
  20 O20            6.4699     5.6391     1.9375 O.3     
  21 C21            3.6855    -2.1710    -0.0436 C.3     
  22 C22            3.5938    -2.6846     1.3702 C.ar    
  23 C23            2.4446    -2.4893     2.1105 C.ar    
  24 C24            4.6613    -3.3641     1.9402 C.ar    
  25 C25            4.5353    -3.8189     3.2414 C.ar    
  26 C26            3.3520    -3.5815     3.9286 C.ar    
  27 N27            2.3543    -2.9345     3.3491 N.ar    
  28 O28            1.1061     3.4648     0.0096 O.3     
  29 C29           -0.1847     4.0776     0.0254 C.3     
  30 F30            2.6162    -2.6738    -0.7927 F       
  31 O31            3.2158    -4.0226     5.2044 O.3     
  32 C32            1.9748    -3.7470     5.8571 C.3     
  33 H33           -0.9640     1.9066     0.0170 H       
  34 H34           -0.9306    -0.5486     0.0084 H       
  35 H35            1.1773    -1.7698    -0.0184 H       
  36 H36            5.7365    -0.4095    -0.0533 H       
  37 H37            5.0266     4.0703    -0.0233 H       
  38 H38            7.8862     3.8926     0.5423 H       
  39 H39            7.8551     3.6109    -1.9050 H       
  40 H40            6.8262     5.0546    -2.0759 H       
  41 H41            6.0566     6.2820     0.0166 H       
  42 H42            7.9354     7.6271     0.8800 H       
  43 H43            8.9186     6.1557     1.0731 H       
  44 H44            9.6532     4.9839    -0.9246 H       
  45 H45            9.1829     5.6373    -2.5123 H       
  46 H46            6.2848     6.4749     2.3871 H       
  47 H47            4.6257    -2.4971    -0.4884 H       
  48 H48            1.6094    -1.9651     1.6701 H       
  49 H49            5.5695    -3.5344     1.3811 H       
  50 H50            5.3461    -4.3517     3.7159 H       
  51 H51           -0.7420     3.7738    -0.8607 H       
  52 H52           -0.7246     3.7648     0.9191 H       
  53 H53           -0.0722     5.1618     0.0297 H       
  54 H54            1.8193    -2.6691     5.9017 H       
  55 H55            1.1603    -4.2088     5.2990 H       
  56 H56            1.9982    -4.1529     6.8684 H       
@<TRIPOS>BOND
   1    1    2 ar
   2    1    6 ar
   3    1   33 1
   4    2    3 ar
   5    2   34 1
   6    3    4 ar
   7    3   35 1
   8    4    5 ar
   9    4    7 ar
  10    5    6 ar
  11    5   10 ar
  12    6   28 1
  13    7    8 ar
  14    7   21 1
  15    8    9 ar
  16    8   36 1
  17    9   10 ar
  18    9   11 1
  19   11   12 am
  20   11   13 2
  21   12   14 1
  22   12   37 1
  23   14   15 1
  24   14   16 1
  25   14   38 1
  26   15   19 1
  27   15   39 1
  28   15   40 1
  29   16   17 1
  30   16   20 1
  31   16   41 1
  32   17   18 1
  33   17   42 1
  34   17   43 1
  35   18   19 1
  36   19   44 1
  37   19   45 1
  38   20   46 1
  39   21   22 1
  40   21   30 1
  41   21   47 1
  42   22   23 ar
  43   22   24 ar
  44   23   27 ar
  45   23   48 1
  46   24   25 ar
  47   24   49 1
  48   25   26 ar
  49   25   50 1
  50   26   27 ar
  51   26   31 1
  52   28   29 1
  53   29   51 1
  54   29   52 1
  55   29   53 1
  56   31   32 1
  57   32   54 1
  58   32   55 1
  59   32   56 1

#	End of record

