#	Name: ASD01815623
#	Creating user name:	WinNT
#	Creation time:	15. 06. 2019 19:33

#	Modifying user name:	WinNT
#	Modification time:	15. 06. 2019 19:33

#	Program:	/corina/corina34_cracker 3.40 0067  02.08.2006

@<TRIPOS>MOLECULE
ASD01815623
  34   36    0    0    0
SMALL
NO_CHARGES


@<TRIPOS>ATOM
   1 C1             1.4515     1.3833    -2.9448 C.ar    
   2 C2             1.4167    -0.0028    -2.8943 C.ar    
   3 C3             2.1414    -0.6913    -1.9436 C.ar    
   4 C4             2.9195     0.0074    -1.0211 C.ar    
   5 C5             2.9521     1.4108    -1.0763 C.ar    
   6 C6             2.2135     2.0929    -2.0432 C.ar    
   7 N7             3.6483    -0.6681    -0.0653 N.pl3   
   8 C8             4.4092    -0.0438     0.8423 C.2     
   9 C9             4.5209     1.3314     0.8877 C.2     
  10 C10            3.7790     2.1378    -0.0949 C.2     
  11 O11            3.8445     3.3546    -0.0970 O.2     
  12 C12            5.3666     1.9794     1.9001 C.2     
  13 O13            5.9750     1.3035     2.7069 O.2     
  14 O14            5.4675     3.3232     1.9342 O.3     
  15 C15            3.5871    -2.1316    -0.0416 C.3     
  16 C16            4.4060    -2.6500     1.1124 C.ar    
  17 C17            3.8318    -2.7812     2.3650 C.ar    
  18 C18            4.5841    -3.2574     3.4255 C.ar    
  19 C19            5.9087    -3.6022     3.2344 C.ar    
  20 C20            6.4848    -3.4714     1.9828 C.ar    
  21 C21            5.7308    -3.0004     0.9189 C.ar    
  22 F22            2.0970    -2.0411    -1.9060 F       
  23 F23            6.2921    -2.8728    -0.3033 F       
  24 F24            7.7798    -3.8081     1.7965 F       
  25 F25            2.5372    -2.4440     2.5531 F       
  26 H26            0.8820     1.9081    -3.6975 H       
  27 H27            0.8156    -0.5484    -3.6066 H       
  28 H28            2.2395     3.1718    -2.0850 H       
  29 H29            4.9535    -0.6358     1.5631 H       
  30 H30            6.0356     3.7036     2.6181 H       
  31 H31            2.5513    -2.4501     0.0759 H       
  32 H32            3.9850    -2.5271    -0.9761 H       
  33 H33            4.1355    -3.3592     4.4026 H       
  34 H34            6.4946    -3.9736     4.0622 H       
@<TRIPOS>BOND
   1    1    2 ar
   2    1    6 ar
   3    1   26 1
   4    2    3 ar
   5    2   27 1
   6    3    4 ar
   7    3   22 1
   8    4    5 ar
   9    4    7 1
  10    5    6 ar
  11    5   10 1
  12    6   28 1
  13    7    8 1
  14    7   15 1
  15    8    9 2
  16    8   29 1
  17    9   10 1
  18    9   12 1
  19   10   11 2
  20   12   13 2
  21   12   14 1
  22   14   30 1
  23   15   16 1
  24   15   31 1
  25   15   32 1
  26   16   17 ar
  27   16   21 ar
  28   17   18 ar
  29   17   25 1
  30   18   19 ar
  31   18   33 1
  32   19   20 ar
  33   19   34 1
  34   20   21 ar
  35   20   24 1
  36   21   23 1

#	End of record

