#	Name: ASD01948186
#	Creating user name:	WinNT
#	Creation time:	15. 06. 2019 20:13

#	Modifying user name:	WinNT
#	Modification time:	15. 06. 2019 20:13

#	Program:	/corina/corina34_cracker 3.40 0067  02.08.2006

@<TRIPOS>MOLECULE
ASD01948186
  46   49    0    0    0
SMALL
NO_CHARGES


@<TRIPOS>ATOM
   1 C1            -0.8775     2.9409    -0.3910 C.ar    
   2 C2            -0.9973     3.0240     1.0049 C.ar    
   3 C3            -2.0833     3.6883     1.5809 C.ar    
   4 C4            -3.0410     4.2645     0.7715 C.ar    
   5 C5            -2.9272     4.1846    -0.6154 C.ar    
   6 C6            -1.8537     3.5224    -1.1973 C.ar    
   7 F7            -4.0923     4.9076     1.3251 F       
   8 C8            -5.4708     3.0261    -0.8567 C.ar    
   9 C9            -5.2038     4.2528    -1.4495 C.ar    
  10 N10           -3.9062     4.7731    -1.4293 N.pl3   
  11 C11           -6.7541     2.5141    -0.8786 C.ar    
  12 C12           -7.7728     3.2213    -1.4905 C.ar    
  13 C13           -7.5118     4.4447    -2.0823 C.ar    
  14 C14           -6.2305     4.9630    -2.0642 C.ar    
  15 O15            0.2526     2.2521    -0.6562 O.3     
  16 C16            0.8685     1.8861     0.4822 C.2     
  17 C17            0.1721     2.3171     1.5423 C.2     
  18 F18           -5.9755     6.1573    -2.6419 F       
  19 I19           -9.7161     2.4391    -1.5208 I       
  20 F20           -2.1954     3.7658     2.9250 F       
  21 N21           -1.7477     3.4472    -2.5950 N.am    
  22 S22           -0.2598     3.2925    -3.3055 S.o2    
  23 O23           -0.3869     3.9857    -4.5394 O.2     
  24 O24            0.6520     3.7326    -2.3085 O.2     
  25 C25           -0.0783     1.5105    -3.5922 C.3     
  26 C26           -1.3377     0.7881    -4.0749 C.3     
  27 C27           -2.3308     0.7006    -2.9448 C.2     
  28 C28           -3.5476     1.1587    -3.1051 C.2     
  29 C29            1.2681     1.0139    -4.1228 C.3     
  30 C30            0.8690     0.7396    -2.6707 C.3     
  31 H31           -4.6753     2.4704    -0.3827 H       
  32 H32           -3.6830     5.5412    -1.9781 H       
  33 H33           -6.9617     1.5598    -0.4175 H       
  34 H34           -8.3095     4.9943    -2.5600 H       
  35 H35            1.7903     1.3258     0.5341 H       
  36 H36            0.4211     2.1738     2.5834 H       
  37 H37           -2.5460     3.4859    -3.1447 H       
  38 H38           -1.7787     1.3414    -4.9041 H       
  39 H39           -1.0756    -0.2165    -4.4069 H       
  40 H40           -2.0394     0.2602    -2.0027 H       
  41 H41           -3.8390     1.5992    -4.0472 H       
  42 H42           -4.2593     1.0960    -2.2953 H       
  43 H43            1.2567     0.1723    -4.8154 H       
  44 H44            2.0448     1.7580    -4.2996 H       
  45 H45            1.3834     1.3032    -1.8923 H       
  46 H46            0.5952    -0.2823    -2.4085 H       
@<TRIPOS>BOND
   1    1    2 ar
   2    1   15 1
   3    1    6 ar
   4    2    3 ar
   5    2   17 1
   6    3    4 ar
   7    3   20 1
   8    4    5 ar
   9    4    7 1
  10    5    6 ar
  11    5   10 1
  12    6   21 1
  13    8    9 ar
  14    8   11 ar
  15    8   31 1
  16    9   10 1
  17    9   14 ar
  18   10   32 1
  19   11   12 ar
  20   11   33 1
  21   12   13 ar
  22   12   19 1
  23   13   14 ar
  24   13   34 1
  25   14   18 1
  26   15   16 1
  27   16   17 2
  28   16   35 1
  29   17   36 1
  30   21   22 am
  31   21   37 1
  32   22   23 2
  33   22   24 2
  34   22   25 1
  35   25   26 1
  36   25   29 1
  37   25   30 1
  38   26   27 1
  39   26   38 1
  40   26   39 1
  41   27   28 2
  42   27   40 1
  43   28   41 1
  44   28   42 1
  45   29   30 1
  46   29   43 1
  47   29   44 1
  48   30   45 1
  49   30   46 1

#	End of record

