#	Name: ASD03542001
#	Creating user name:	WinNT
#	Creation time:	15. 06. 2019 20:43

#	Modifying user name:	WinNT
#	Modification time:	15. 06. 2019 20:43

#	Program:	/corina/corina34_cracker 3.40 0067  02.08.2006

@<TRIPOS>MOLECULE
ASD03542001
  38   41    0    0    0
SMALL
NO_CHARGES


@<TRIPOS>ATOM
   1 C1            -0.0207     1.4428     0.4508 C.ar    
   2 C2            -0.0212     0.0617     0.3033 C.ar    
   3 C3             1.1674    -0.6116     0.1258 C.ar    
   4 C4             2.3604     0.0976     0.0956 C.ar    
   5 C5             2.3736     1.4959     0.2437 C.ar    
   6 C6             1.1408     2.1527     0.4234 C.ar    
   7 S7             4.0478    -0.3795    -0.1053 S.3     
   8 N8             4.6971     1.1806     0.0036 N.2     
   9 C9             3.7306     2.0287     0.1800 C.2     
  10 N10            3.9740     3.3672     0.3013 N.2     
  11 C11            5.2071     3.8192     0.2405 C.2     
  12 S12            6.6764     2.8564     0.0072 S.3     
  13 C13            7.7744     4.2489     0.0591 C.2     
  14 C14            6.8942     5.4041     0.2608 C.2     
  15 N15            5.6040     5.1244     0.3391 N.am    
  16 O16            7.3206     6.5410     0.3453 O.2     
  17 C17            9.1266     4.2456    -0.0610 C.2     
  18 C18            9.8571     5.5148    -0.1709 C.ar    
  19 C19           11.0736     5.6859     0.5012 C.ar    
  20 C20           11.7544     6.8778     0.3942 C.ar    
  21 C21           11.2363     7.9102    -0.3790 C.ar    
  22 C22           10.0289     7.7460    -1.0479 C.ar    
  23 C23            9.3425     6.5564    -0.9528 C.ar    
  24 O24           11.9119     9.0836    -0.4810 O.3     
  25 C25           11.3235    10.1027    -1.2917 C.3     
  26 H26           -0.9577     1.9627     0.5849 H       
  27 H27           -0.9529    -0.4840     0.3282 H       
  28 H28            1.1711    -1.6855     0.0112 H       
  29 H29            1.1166     3.2261     0.5402 H       
  30 H30            4.9523     5.8305     0.4717 H       
  31 H31            9.6652     3.3096    -0.0757 H       
  32 H32           11.4769     4.8846     1.1025 H       
  33 H33           12.6926     7.0110     0.9124 H       
  34 H34            9.6306     8.5517    -1.6468 H       
  35 H35            8.4046     6.4298    -1.4731 H       
  36 H36           11.2153     9.7373    -2.3129 H       
  37 H37           10.3429    10.3630    -0.8931 H       
  38 H38           11.9634    10.9851    -1.2874 H       
@<TRIPOS>BOND
   1    1    2 ar
   2    1    6 ar
   3    1   26 1
   4    2    3 ar
   5    2   27 1
   6    3    4 ar
   7    3   28 1
   8    4    5 ar
   9    4    7 1
  10    5    6 ar
  11    5    9 1
  12    6   29 1
  13    7    8 1
  14    8    9 2
  15    9   10 1
  16   10   11 2
  17   11   12 1
  18   11   15 1
  19   12   13 1
  20   13   14 1
  21   13   17 2
  22   14   15 am
  23   14   16 2
  24   15   30 1
  25   17   18 1
  26   17   31 1
  27   18   19 ar
  28   18   23 ar
  29   19   20 ar
  30   19   32 1
  31   20   21 ar
  32   20   33 1
  33   21   22 ar
  34   21   24 1
  35   22   23 ar
  36   22   34 1
  37   23   35 1
  38   24   25 1
  39   25   36 1
  40   25   37 1
  41   25   38 1

#	End of record

