#	Name: ASD01411207
#	Creating user name:	WinNT
#	Creation time:	15. 06. 2019 19:19

#	Modifying user name:	WinNT
#	Modification time:	15. 06. 2019 19:19

#	Program:	/corina/corina34_cracker 3.40 0067  02.08.2006

@<TRIPOS>MOLECULE
ASD01411207
  68   71    0    0    0
SMALL
NO_CHARGES


@<TRIPOS>ATOM
   1 C1            -0.6939     1.1302    -1.7041 C.ar    
   2 C2            -0.4076    -0.2017    -1.5372 C.ar    
   3 C3             0.8564    -0.7080    -1.8330 C.ar    
   4 C4             1.8407     0.1536    -2.2977 C.ar    
   5 C5             1.5589     1.4953    -2.4654 C.ar    
   6 C6             0.2952     1.9904    -2.1723 C.ar    
   7 P7            -1.6547    -1.3715    -0.9187 P.3     
   8 N8            -0.8553    -2.7564    -0.5227 N.2     
   9 C9             0.3695    -2.9285    -0.9157 C.2     
  10 N10            1.1115    -2.0676    -1.6651 N.pl3   
  11 C11            1.0250    -4.1854    -0.5083 C.2     
  12 C12            0.4505    -5.1675     0.2396 C.2     
  13 C13            1.4923    -6.2504     0.4020 C.3     
  14 N14            2.6812    -5.7788    -0.3182 N.am    
  15 C15            2.3946    -4.5771    -0.8498 C.2     
  16 O16           -2.3222    -0.8130     0.2784 O.2     
  17 O17           -2.7427    -1.6734    -2.0664 O.3     
  18 O18           -0.7985    -5.1726     0.7367 O.3     
  19 O19            3.1637    -3.9094    -1.5153 O.2     
  20 C20           -3.5555    -0.6562    -2.6554 C.3     
  21 C21           -4.4750    -1.2825    -3.7056 C.3     
  22 C22            1.8183    -6.4502     1.8835 C.3     
  23 C23            0.5244    -6.6981     2.6615 C.3     
  24 C24            2.7481    -7.6548     2.0432 C.3     
  25 C25            2.5084    -5.1976     2.4273 C.3     
  26 N26            0.0166     3.3504    -2.3477 N.am    
  27 S27           -0.0671     4.3547    -1.0337 S.o2    
  28 O28           -0.2685     5.6459    -1.5917 O.2     
  29 O29           -1.0482     3.7567    -0.1975 O.2     
  30 C30            1.5748     4.2398    -0.2710 C.3     
  31 C31            3.9538    -6.4941    -0.4415 C.3     
  32 C32            3.8979    -7.4172    -1.6314 C.ar    
  33 C33            4.2964    -6.9655    -2.8759 C.ar    
  34 C34            4.2454    -7.8116    -3.9677 C.ar    
  35 C35            3.7959    -9.1100    -3.8159 C.ar    
  36 C36            3.3972    -9.5625    -2.5710 C.ar    
  37 C37            3.4538    -8.7167    -1.4773 C.ar    
  38 Cl38           2.8322   -11.1928    -2.3796 Cl      
  39 H39           -1.6805     1.5071    -1.4781 H       
  40 H40            2.8258    -0.2247    -2.5274 H       
  41 H41            2.3264     2.1636    -2.8269 H       
  42 H42            1.8852    -2.4326    -2.1224 H       
  43 H43            1.1350    -7.1835    -0.0336 H       
  44 H44           -1.3502    -4.4017     0.5459 H       
  45 H45           -4.1584    -0.1799    -1.8822 H       
  46 H46           -2.9174     0.0896    -3.1295 H       
  47 H47           -3.8721    -1.7588    -4.4787 H       
  48 H48           -5.1131    -2.0283    -3.2315 H       
  49 H49           -5.0949    -0.5067    -4.1548 H       
  50 H50            0.0328    -7.5905     2.2741 H       
  51 H51            0.7566    -6.8405     3.7169 H       
  52 H52           -0.1380    -5.8400     2.5477 H       
  53 H53            3.7800    -7.3403     1.8872 H       
  54 H54            2.6412    -8.0657     3.0470 H       
  55 H55            2.4854    -8.4163     1.3089 H       
  56 H56            1.8460    -4.3395     2.3136 H       
  57 H57            2.7406    -5.3400     3.4827 H       
  58 H58            3.4302    -5.0211     1.8731 H       
  59 H59           -0.1276     3.7049    -3.2391 H       
  60 H60            2.3373     4.4795    -1.0121 H       
  61 H61            1.6402     4.9440     0.5584 H       
  62 H62            1.7335     3.2269     0.0990 H       
  63 H63            4.7626    -5.7759    -0.5765 H       
  64 H64            4.1323    -7.0767     0.4623 H       
  65 H65            4.6472    -5.9511    -2.9951 H       
  66 H66            4.5564    -7.4581    -4.9397 H       
  67 H67            3.7558    -9.7709    -4.6691 H       
  68 H68            3.1467    -9.0707    -0.5043 H       
@<TRIPOS>BOND
   1    1    2 ar
   2    1    6 ar
   3    1   39 1
   4    2    3 ar
   5    2    7 1
   6    3    4 ar
   7    3   10 1
   8    4    5 ar
   9    4   40 1
  10    5    6 ar
  11    5   41 1
  12    6   26 1
  13    7    8 1
  14    7   16 2
  15    7   17 1
  16    8    9 2
  17    9   10 1
  18    9   11 1
  19   10   42 1
  20   11   12 2
  21   11   15 1
  22   12   13 1
  23   12   18 1
  24   13   14 1
  25   13   22 1
  26   13   43 1
  27   14   15 am
  28   14   31 1
  29   15   19 2
  30   17   20 1
  31   18   44 1
  32   20   21 1
  33   20   45 1
  34   20   46 1
  35   21   47 1
  36   21   48 1
  37   21   49 1
  38   22   23 1
  39   22   24 1
  40   22   25 1
  41   23   50 1
  42   23   51 1
  43   23   52 1
  44   24   53 1
  45   24   54 1
  46   24   55 1
  47   25   56 1
  48   25   57 1
  49   25   58 1
  50   26   27 am
  51   26   59 1
  52   27   28 2
  53   27   29 2
  54   27   30 1
  55   30   60 1
  56   30   61 1
  57   30   62 1
  58   31   32 1
  59   31   63 1
  60   31   64 1
  61   32   33 ar
  62   32   37 ar
  63   33   34 ar
  64   33   65 1
  65   34   35 ar
  66   34   66 1
  67   35   36 ar
  68   35   67 1
  69   36   37 ar
  70   36   38 1
  71   37   68 1

#	End of record

