#	Name: ASD03430492
#	Creating user name:	WinNT
#	Creation time:	15. 06. 2019 20:41

#	Modifying user name:	WinNT
#	Modification time:	15. 06. 2019 20:41

#	Program:	/corina/corina34_cracker 3.40 0067  02.08.2006

@<TRIPOS>MOLECULE
ASD03430492
  53   57    0    0    0
SMALL
NO_CHARGES


@<TRIPOS>ATOM
   1 N1            -0.0161     1.3395     0.0094 N.am    
   2 C2             0.0021    -0.0041     0.0020 C.2     
   3 C3             1.4548    -0.4298    -0.0141 C.3     
   4 C4             2.2197     0.8737    -0.0144 C.ar    
   5 C5             3.5641     1.1705    -0.0263 C.ar    
   6 C6             3.9795     2.4906    -0.0239 C.ar    
   7 C7             3.0415     3.5068    -0.0095 C.ar    
   8 C8             1.6940     3.2122     0.0024 C.ar    
   9 C9             1.2680     1.8853     0.0001 C.ar    
  10 O10           -0.9637    -0.7377     0.0076 O.2     
  11 O11            1.7660    -1.1927     1.1535 O.3     
  12 C12           -1.2434     2.1395     0.0197 C.3     
  13 C13           -1.6570     2.4066     1.4440 C.2     
  14 C14           -1.2728     3.4557     2.1719 C.2     
  15 C15           -1.7814     3.4906     3.4594 C.2     
  16 C16           -2.5793     2.4682     3.7761 C.2     
  17 S17           -2.7261     1.3860     2.3974 S.3     
  18 Cl18          -3.3586     2.2449     5.3112 Cl      
  19 C19            1.7593    -1.2210    -1.2601 C.ar    
  20 C20            1.5529    -0.6543    -2.5093 C.ar    
  21 C21            1.8336    -1.3822    -3.6558 C.ar    
  22 C22            2.3192    -2.6716    -3.5539 C.ar    
  23 C23            2.5260    -3.2379    -2.3050 C.ar    
  24 C24            2.2493    -2.5083    -1.1581 C.ar    
  25 O25            1.0749     0.6147    -2.6096 O.3     
  26 O26            3.0036    -4.5072    -2.2047 O.3     
  27 C27            3.2703    -5.1984    -3.4266 C.3     
  28 C28            3.7890    -6.5796    -3.1194 C.ar    
  29 C29            2.9066    -7.6351    -2.9844 C.ar    
  30 C30            3.3823    -8.9020    -2.7026 C.ar    
  31 C31            4.7405    -9.1136    -2.5563 C.ar    
  32 C32            5.6230    -8.0583    -2.6922 C.ar    
  33 C33            5.1476    -6.7922    -2.9783 C.ar    
  34 H34            4.2935     0.3741    -0.0372 H       
  35 H35            5.0333     2.7266    -0.0329 H       
  36 H36            3.3659     4.5370    -0.0072 H       
  37 H37            0.9677     4.0114     0.0136 H       
  38 H38            1.2584    -2.0117     1.2350 H       
  39 H39           -1.0644     3.0860    -0.4902 H       
  40 H40           -2.0364     1.5949    -0.4929 H       
  41 H41           -0.6144     4.2202     1.7866 H       
  42 H42           -1.5499     4.2842     4.1544 H       
  43 H43            1.6722    -0.9413    -4.6284 H       
  44 H44            2.5375    -3.2386    -4.4468 H       
  45 H45            2.4139    -2.9480    -0.1855 H       
  46 H46            1.7632     1.2935    -2.6338 H       
  47 H47            2.3517    -5.2763    -4.0080 H       
  48 H48            4.0174    -4.6489    -3.9993 H       
  49 H49            1.8454    -7.4698    -3.0988 H       
  50 H50            2.6928    -9.7265    -2.5965 H       
  51 H51            5.1121   -10.1033    -2.3354 H       
  52 H52            6.6841    -8.2236    -2.5775 H       
  53 H53            5.8373    -5.9684    -3.0881 H       
@<TRIPOS>BOND
   1    1    2 am
   2    1    9 1
   3    1   12 1
   4    2    3 1
   5    2   10 2
   6    3    4 1
   7    3   11 1
   8    3   19 1
   9    4    5 ar
  10    4    9 ar
  11    5    6 ar
  12    5   34 1
  13    6    7 ar
  14    6   35 1
  15    7    8 ar
  16    7   36 1
  17    8    9 ar
  18    8   37 1
  19   11   38 1
  20   12   13 1
  21   12   39 1
  22   12   40 1
  23   13   14 2
  24   13   17 1
  25   14   15 1
  26   14   41 1
  27   15   16 2
  28   15   42 1
  29   16   17 1
  30   16   18 1
  31   19   20 ar
  32   19   24 ar
  33   20   21 ar
  34   20   25 1
  35   21   22 ar
  36   21   43 1
  37   22   23 ar
  38   22   44 1
  39   23   24 ar
  40   23   26 1
  41   24   45 1
  42   25   46 1
  43   26   27 1
  44   27   28 1
  45   27   47 1
  46   27   48 1
  47   28   29 ar
  48   28   33 ar
  49   29   30 ar
  50   29   49 1
  51   30   31 ar
  52   30   50 1
  53   31   32 ar
  54   31   51 1
  55   32   33 ar
  56   32   52 1
  57   33   53 1

#	End of record

