#	Name: ASD01152203
#	Creating user name:	WinNT
#	Creation time:	15. 06. 2019 19:05

#	Modifying user name:	WinNT
#	Modification time:	15. 06. 2019 19:05

#	Program:	/corina/corina34_cracker 3.40 0067  02.08.2006

@<TRIPOS>MOLECULE
ASD01152203
  24   25    0    0    0
SMALL
NO_CHARGES


@<TRIPOS>ATOM
   1 N1            -0.0169     1.3957     0.0097 N.2     
   2 N2             0.0021    -0.0041     0.0020 N.am    
   3 C3             1.1654    -0.6786    -0.0127 C.2     
   4 N4             2.3442    -0.0285    -0.0200 N.am    
   5 C5             2.3714     1.3204    -0.0130 C.2     
   6 C6             1.1053     2.0606     0.0026 C.2     
   7 O7             1.1523    -1.8945    -0.0191 O.2     
   8 O8             3.4331     1.9154    -0.0192 O.2     
   9 Br9            1.0999     3.9516     0.0122 Br      
  10 C10            3.5980    -0.7860    -0.0351 C.3     
  11 C11            4.0152    -1.0386    -1.4610 C.ar    
  12 C12            4.8256    -0.1295    -2.1152 C.ar    
  13 C13            5.2086    -0.3607    -3.4229 C.ar    
  14 C14            4.7807    -1.5021    -4.0773 C.ar    
  15 C15            3.9696    -2.4115    -3.4221 C.ar    
  16 C16            3.5919    -2.1820    -2.1125 C.ar    
  17 Cl17           5.2607    -1.7928    -5.7201 Cl      
  18 H18           -0.8351    -0.4940     0.0077 H       
  19 H19            4.3738    -0.2147     0.4747 H       
  20 H20            3.4534    -1.7382     0.4753 H       
  21 H21            5.1593     0.7616    -1.6044 H       
  22 H22            5.8414     0.3498    -3.9340 H       
  23 H23            3.6352    -3.3026    -3.9324 H       
  24 H24            2.9624    -2.8940    -1.5995 H       
@<TRIPOS>BOND
   1    1    2 1
   2    1    6 2
   3    2    3 am
   4    2   18 1
   5    3    4 am
   6    3    7 2
   7    4    5 am
   8    4   10 1
   9    5    6 1
  10    5    8 2
  11    6    9 1
  12   10   11 1
  13   10   19 1
  14   10   20 1
  15   11   12 ar
  16   11   16 ar
  17   12   13 ar
  18   12   21 1
  19   13   14 ar
  20   13   22 1
  21   14   15 ar
  22   14   17 1
  23   15   16 ar
  24   15   23 1
  25   16   24 1

#	End of record

