#	Name: ASD01917369
#	Creating user name:	WinNT
#	Creation time:	15. 06. 2019 20:09

#	Modifying user name:	WinNT
#	Modification time:	15. 06. 2019 20:09

#	Program:	/corina/corina34_cracker 3.40 0067  02.08.2006

@<TRIPOS>MOLECULE
ASD01917369
  56   60    0    0    0
SMALL
NO_CHARGES


@<TRIPOS>ATOM
   1 C1            -0.0171     1.4104     0.0098 C.ar    
   2 C2             0.0021    -0.0041     0.0020 C.ar    
   3 C3            -1.1928    -0.7225     0.0401 C.ar    
   4 C4            -2.3832    -0.0551     0.0717 C.ar    
   5 C5            -2.4160     1.3411     0.0662 C.ar    
   6 C6            -1.2415     2.0752     0.0362 C.ar    
   7 N7             1.1596     2.0756     0.0021 N.2     
   8 C8             2.3193     1.4672    -0.0393 C.2     
   9 N9             2.4187     0.1190    -0.1563 N.am    
  10 C10            1.3084    -0.6628    -0.0612 C.2     
  11 O11            1.3990    -1.8766    -0.0290 O.2     
  12 N12           -3.6408     2.0016     0.0917 N.3     
  13 C13            3.5357     2.3440     0.1018 C.3     
  14 C14            4.7917     1.6902    -0.4306 C.3     
  15 C15            4.8952     0.2340    -0.0257 C.3     
  16 C16            3.6778    -0.5636    -0.4348 C.3     
  17 C17            6.1331    -0.3773    -0.6851 C.3     
  18 C18            5.0542     0.1519     1.4938 C.3     
  19 C19           -4.7550     1.0439     0.1217 C.3     
  20 C20           -6.0773     1.8070     0.2293 C.3     
  21 N21           -6.2052     2.7237    -0.9122 N.3     
  22 C22           -5.0909     3.6813    -0.9423 C.3     
  23 C23           -3.7686     2.9182    -1.0499 C.3     
  24 C24           -7.4284     3.3833    -0.8868 C.ar    
  25 N25           -8.2871     3.1359     0.0901 N.ar    
  26 C26           -9.4587     3.7404     0.1513 C.ar    
  27 C27           -9.8325     4.6585    -0.8090 C.ar    
  28 C28           -8.9603     4.9466    -1.8508 C.ar    
  29 C29           -7.7372     4.3020    -1.8851 C.ar    
  30 H30           -1.1762    -1.8024     0.0443 H       
  31 H31           -3.3082    -0.6119     0.1008 H       
  32 H32           -1.2745     3.1547     0.0325 H       
  33 H33            3.3649     3.2730    -0.4421 H       
  34 H34            3.6806     2.5777     1.1566 H       
  35 H35            4.7905     1.7555    -1.5186 H       
  36 H36            5.6596     2.2265    -0.0468 H       
  37 H37            3.6862    -1.5134     0.0999 H       
  38 H38            3.7361    -0.7668    -1.5041 H       
  39 H39            7.0226     0.1604    -0.3568 H       
  40 H40            6.2164    -1.4259    -0.3996 H       
  41 H41            6.0422    -0.3018    -1.7687 H       
  42 H42            4.1886     0.6073     1.9749 H       
  43 H43            5.1296    -0.8929     1.7953 H       
  44 H44            5.9578     0.6827     1.7938 H       
  45 H45           -4.7503     0.4517    -0.7933 H       
  46 H46           -4.6446     0.3845     0.9826 H       
  47 H47           -6.9068     1.1000     0.2226 H       
  48 H48           -6.0932     2.3780     1.1577 H       
  49 H49           -5.2013     4.3408    -1.8031 H       
  50 H50           -5.0956     4.2736    -0.0272 H       
  51 H51           -2.9391     3.6253    -1.0432 H       
  52 H52           -3.7527     2.3473    -1.9782 H       
  53 H53          -10.1338     3.5134     0.9631 H       
  54 H54          -10.7935     5.1478    -0.7511 H       
  55 H55           -9.2296     5.6610    -2.6147 H       
  56 H56           -7.0349     4.5026    -2.6806 H       
@<TRIPOS>BOND
   1    1    2 ar
   2    1    7 1
   3    1    6 ar
   4    2    3 ar
   5    2   10 1
   6    3    4 ar
   7    3   30 1
   8    4    5 ar
   9    4   31 1
  10    5    6 ar
  11    5   12 1
  12    6   32 1
  13    7    8 2
  14    8    9 1
  15    8   13 1
  16    9   10 am
  17    9   16 1
  18   10   11 2
  19   12   19 1
  20   12   23 1
  21   13   14 1
  22   13   33 1
  23   13   34 1
  24   14   15 1
  25   14   35 1
  26   14   36 1
  27   15   16 1
  28   15   17 1
  29   15   18 1
  30   16   37 1
  31   16   38 1
  32   17   39 1
  33   17   40 1
  34   17   41 1
  35   18   42 1
  36   18   43 1
  37   18   44 1
  38   19   20 1
  39   19   45 1
  40   19   46 1
  41   20   21 1
  42   20   47 1
  43   20   48 1
  44   21   22 1
  45   21   24 1
  46   22   23 1
  47   22   49 1
  48   22   50 1
  49   23   51 1
  50   23   52 1
  51   24   25 ar
  52   24   29 ar
  53   25   26 ar
  54   26   27 ar
  55   26   53 1
  56   27   28 ar
  57   27   54 1
  58   28   29 ar
  59   28   55 1
  60   29   56 1

#	End of record

