#	Name: ASD04590777
#	Creating user name:	WinNT
#	Creation time:	15. 06. 2019 20:51

#	Modifying user name:	WinNT
#	Modification time:	15. 06. 2019 20:51

#	Program:	/corina/corina34_cracker 3.40 0067  02.08.2006

@<TRIPOS>MOLECULE
ASD04590777
  60   65    0    0    0
SMALL
NO_CHARGES


@<TRIPOS>ATOM
   1 N1            -0.0171     1.3233    -0.0128 N.ar    
   2 C2             0.0017    -0.0035    -0.0056 C.ar    
   3 N3             1.1300    -0.6947    -0.0126 N.ar    
   4 C4             2.3048    -0.0726    -0.0273 C.ar    
   5 C5             2.3188     1.3367    -0.0353 C.ar    
   6 C6             1.1071     2.0203    -0.0275 C.ar    
   7 N7             3.6049    -0.5198    -0.0378 N.pl3   
   8 C8             4.4838     0.5514    -0.0525 C.ar    
   9 C9             3.7312     1.7395    -0.0516 C.ar    
  10 C10            5.8692     0.6451    -0.0672 C.ar    
  11 N11            6.4613     1.8220    -0.0796 N.ar    
  12 C12            5.7837     2.9565    -0.0792 C.ar    
  13 C13            4.4050     2.9601    -0.0658 C.ar    
  14 C14            3.9868    -1.8669    -0.0341 C.ar    
  15 N15           -1.2019    -0.6888     0.0103 N.pl3   
  16 C16           -2.4019     0.0119     0.1313 C.ar    
  17 C17           -3.6090    -0.6708     0.0341 C.ar    
  18 C18           -4.7936     0.0331     0.1559 C.ar    
  19 C19           -4.7292     1.4083     0.3727 C.ar    
  20 C20           -3.4881     2.0219     0.4587 C.ar    
  21 N21           -2.3782     1.3181     0.3427 N.ar    
  22 N22           -5.9024     2.1611     0.5017 N.3     
  23 C23           -5.5953     3.5810     0.7236 C.3     
  24 C24           -6.8998     4.3796     0.7796 C.3     
  25 N25           -7.7479     3.8524     1.8578 N.3     
  26 C26           -8.0550     2.4325     1.6359 C.3     
  27 C27           -6.7505     1.6340     1.5799 C.3     
  28 C28            4.6705    -2.3933     1.0540 C.ar    
  29 C29            3.6776    -2.6808    -1.1159 C.ar    
  30 C30            4.0552    -4.0092    -1.1090 C.ar    
  31 C31            4.7402    -4.5292    -0.0261 C.ar    
  32 C32            5.0454    -3.7226     1.0548 C.ar    
  33 C33            5.1503    -5.9793    -0.0217 C.3     
  34 C34            6.5206    -6.1157    -0.6339 C.2     
  35 O35            7.1043    -5.1359    -1.0328 O.2     
  36 O36            7.0927    -7.3257    -0.7359 O.3     
  37 H37            1.0847     3.1001    -0.0332 H       
  38 H38            6.4665    -0.2546    -0.0682 H       
  39 H39            6.3180     3.8950    -0.0897 H       
  40 H40            3.8572     3.8909    -0.0660 H       
  41 H41           -1.2102    -1.6560    -0.0627 H       
  42 H42           -3.6217    -1.7375    -0.1348 H       
  43 H43           -5.7459    -0.4712     0.0843 H       
  44 H44           -3.4297     3.0872     0.6263 H       
  45 H45           -5.0589     3.6942     1.6657 H       
  46 H46           -4.9770     3.9514    -0.0941 H       
  47 H47           -6.6759     5.4287     0.9730 H       
  48 H48           -7.4231     4.2885    -0.1722 H       
  49 H49           -7.3160     3.9925     2.7588 H       
  50 H50           -8.6733     2.0621     2.4536 H       
  51 H51           -8.5914     2.3194     0.6938 H       
  52 H52           -6.9744     0.5849     1.3865 H       
  53 H53           -6.2272     1.7250     2.5317 H       
  54 H54            4.9092    -1.7638     1.8985 H       
  55 H55            3.1420    -2.2754    -1.9617 H       
  56 H56            3.8150    -4.6427    -1.9501 H       
  57 H57            5.5804    -4.1316     1.8991 H       
  58 H58            5.1723    -6.3476     1.0040 H       
  59 H59            4.4338    -6.5613    -0.6014 H       
  60 H60            7.9724    -7.3630    -1.1356 H       
@<TRIPOS>BOND
   1    1    2 ar
   2    1    6 ar
   3    2    3 ar
   4    2   15 1
   5    3    4 ar
   6    4    5 ar
   7    4    7 1
   8    5    6 ar
   9    5    9 1
  10    6   37 1
  11    7    8 1
  12    7   14 1
  13    8    9 ar
  14    8   10 ar
  15    9   13 ar
  16   10   11 ar
  17   10   38 1
  18   11   12 ar
  19   12   13 ar
  20   12   39 1
  21   13   40 1
  22   14   29 ar
  23   14   28 ar
  24   15   16 1
  25   15   41 1
  26   16   17 ar
  27   16   21 ar
  28   17   18 ar
  29   17   42 1
  30   18   19 ar
  31   18   43 1
  32   19   20 ar
  33   19   22 1
  34   20   21 ar
  35   20   44 1
  36   22   23 1
  37   22   27 1
  38   23   24 1
  39   23   45 1
  40   23   46 1
  41   24   25 1
  42   24   47 1
  43   24   48 1
  44   25   26 1
  45   25   49 1
  46   26   27 1
  47   26   50 1
  48   26   51 1
  49   27   52 1
  50   27   53 1
  51   28   32 ar
  52   28   54 1
  53   29   30 ar
  54   29   55 1
  55   30   31 ar
  56   30   56 1
  57   31   32 ar
  58   31   33 1
  59   32   57 1
  60   33   34 1
  61   33   58 1
  62   33   59 1
  63   34   35 2
  64   34   36 1
  65   36   60 1

#	End of record

