#	Name: ASD01120153
#	Creating user name:	WinNT
#	Creation time:	15. 06. 2019 18:59

#	Modifying user name:	WinNT
#	Modification time:	15. 06. 2019 18:59

#	Program:	/corina/corina34_cracker 3.40 0067  02.08.2006

@<TRIPOS>MOLECULE
ASD01120153
  30   32    0    0    0
SMALL
NO_CHARGES


@<TRIPOS>ATOM
   1 C1            -0.0589     1.4091     0.6852 C.ar    
   2 C2            -0.0455     0.0191     0.7735 C.ar    
   3 C3            -1.1979    -0.7035     0.6602 C.ar    
   4 C4            -2.4130    -0.0388     0.4524 C.ar    
   5 C5            -2.4239     1.3750     0.3635 C.ar    
   6 C6            -1.2260     2.0869     0.4886 C.ar    
   7 N7            -3.5738    -0.7009     0.3337 N.ar    
   8 C8            -4.6949    -0.0481     0.1392 C.ar    
   9 N9            -4.7540     1.2710     0.0491 N.ar    
  10 C10           -3.6657     2.0223     0.1528 C.ar    
  11 C11           -6.0899     3.4774     0.6099 C.ar    
  12 C12           -4.9874     4.0231    -0.0350 C.ar    
  13 C13           -5.1256     5.1931    -0.7709 C.ar    
  14 C14           -6.3587     5.8102    -0.8589 C.ar    
  15 C15           -7.4550     5.2635    -0.2149 C.ar    
  16 C16           -7.3200     4.0991     0.5181 C.ar    
  17 N17           -3.7413     3.3964     0.0566 N.pl3   
  18 Br18          -6.5485     7.4034    -1.8597 Br      
  19 Cl19           1.4596    -0.8068     1.0309 Cl      
  20 N20            1.2097     2.1611     0.8127 N.pl3   
  21 O21            1.2074     3.3768     0.7367 O.2     
  22 O22            2.2560     1.5643     0.9934 O.2     
  23 H23           -1.1728    -1.7809     0.7299 H       
  24 H24           -1.2244     3.1649     0.4225 H       
  25 H25           -5.6111    -0.6126     0.0481 H       
  26 H26           -5.9864     2.5654     1.1791 H       
  27 H27           -4.2702     5.6201    -1.2732 H       
  28 H28           -8.4178     5.7477    -0.2848 H       
  29 H29           -8.1774     3.6748     1.0192 H       
  30 H30           -2.9297     3.9277     0.0525 H       
@<TRIPOS>BOND
   1    1    2 ar
   2    1   20 1
   3    1    6 ar
   4    2    3 ar
   5    2   19 1
   6    3    4 ar
   7    3   23 1
   8    4    5 ar
   9    4    7 ar
  10    5    6 ar
  11    5   10 ar
  12    6   24 1
  13    7    8 ar
  14    8    9 ar
  15    8   25 1
  16    9   10 ar
  17   10   17 1
  18   11   12 ar
  19   11   16 ar
  20   11   26 1
  21   12   13 ar
  22   12   17 1
  23   13   14 ar
  24   13   27 1
  25   14   15 ar
  26   14   18 1
  27   15   16 ar
  28   15   28 1
  29   16   29 1
  30   17   30 1
  31   20   21 2
  32   20   22 2

#	End of record

