#	Name: ASD02770048
#	Creating user name:	WinNT
#	Creation time:	15. 06. 2019 20:26

#	Modifying user name:	WinNT
#	Modification time:	15. 06. 2019 20:26

#	Program:	/corina/corina34_cracker 3.40 0067  02.08.2006

@<TRIPOS>MOLECULE
ASD02770048
  43   45    0    0    0
SMALL
NO_CHARGES


@<TRIPOS>ATOM
   1 C1            -0.0167     1.3787     0.0096 C.ar    
   2 C2             0.0021    -0.0041     0.0020 C.ar    
   3 C3             1.2063    -0.6798    -0.0126 C.ar    
   4 C4             2.3999     0.0312    -0.0202 C.ar    
   5 C5             2.3774     1.4202    -0.0130 C.ar    
   6 C6             1.1695     2.0895     0.0021 C.ar    
   7 S7            -1.5556     2.2368     0.0216 S.o2    
   8 O8            -1.2999     3.5267    -0.5171 O.2     
   9 O9            -2.5172     1.3437    -0.5232 O.2     
  10 N10           -1.9762     2.4670     1.6066 N.am    
  11 N11            3.6202    -0.6493    -0.0345 N.pl3   
  12 C12            4.7933     0.0515    -0.0420 C.2     
  13 C13            5.9738    -0.6068    -0.0559 C.2     
  14 C14            7.1868     0.1179    -0.0635 C.2     
  15 O15            7.1686     1.3362    -0.0576 O.2     
  16 O16           12.1957    -2.3784    -0.1187 O.3     
  17 C17           12.9734    -1.2389     0.2928 C.3     
  18 O18           12.1710    -0.1129    -0.1088 O.3     
  19 C19           10.8820    -0.5630    -0.1000 C.ar    
  20 C20           10.8982    -1.9587    -0.1059 C.ar    
  21 C21            9.6779     0.1131    -0.0863 C.ar    
  22 C22            8.4776    -0.6019    -0.0787 C.ar    
  23 C23            8.5003    -1.9980    -0.0850 C.ar    
  24 C24            9.7048    -2.6677    -0.0983 C.ar    
  25 C25           -1.2048     3.2700     2.4129 C.2     
  26 N26           -0.1423     3.8503     1.9297 N.2     
  27 N27           -1.5540     3.4611     3.7288 N.pl3   
  28 H28           -0.9261    -0.5561     0.0079 H       
  29 H29            1.2203    -1.7597    -0.0178 H       
  30 H30            3.3034     1.9760    -0.0185 H       
  31 H31            1.1513     3.1694     0.0081 H       
  32 H32           -2.7669     2.0351     1.9662 H       
  33 H33            3.6347    -1.6192    -0.0392 H       
  34 H34            4.7772     1.1314    -0.0367 H       
  35 H35            5.9899    -1.6867    -0.0611 H       
  36 H36           13.1150    -1.2421     1.3736 H       
  37 H37           13.9351    -1.2262    -0.2202 H       
  38 H38            9.6641     1.1930    -0.0815 H       
  39 H39            7.5739    -2.5531    -0.0791 H       
  40 H40            9.7203    -3.7476    -0.1032 H       
  41 H41            0.4019     4.4169     2.4986 H       
  42 H42           -2.3447     3.0293     4.0884 H       
  43 H43           -1.0098     4.0277     4.2977 H       
@<TRIPOS>BOND
   1    1    2 ar
   2    1    6 ar
   3    1    7 1
   4    2    3 ar
   5    2   28 1
   6    3    4 ar
   7    3   29 1
   8    4    5 ar
   9    4   11 1
  10    5    6 ar
  11    5   30 1
  12    6   31 1
  13    7    8 2
  14    7    9 2
  15    7   10 am
  16   10   25 1
  17   10   32 1
  18   11   12 1
  19   11   33 1
  20   12   13 2
  21   12   34 1
  22   13   14 1
  23   13   35 1
  24   14   15 2
  25   14   22 1
  26   16   17 1
  27   16   20 1
  28   17   18 1
  29   17   36 1
  30   17   37 1
  31   18   19 1
  32   19   20 ar
  33   19   21 ar
  34   20   24 ar
  35   21   22 ar
  36   21   38 1
  37   22   23 ar
  38   23   24 ar
  39   23   39 1
  40   24   40 1
  41   25   26 2
  42   25   27 1
  43   26   41 1
  44   27   42 1
  45   27   43 1

#	End of record

