#	Name: ASD00170774
#	Creating user name:	WinNT
#	Creation time:	15. 06. 2019 18:32

#	Modifying user name:	WinNT
#	Modification time:	15. 06. 2019 18:32

#	Program:	/corina/corina34_cracker 3.40 0067  02.08.2006

@<TRIPOS>MOLECULE
ASD00170774
  59   63    0    0    0
SMALL
NO_CHARGES


@<TRIPOS>ATOM
   1 Cl1            3.2608     6.6439    -5.5362 Cl      
   2 C2             2.3457     6.5057    -4.0674 C.ar    
   3 C3             2.8270     5.7305    -3.0252 C.ar    
   4 C4             2.1045     5.6165    -1.8563 C.ar    
   5 C5             0.8856     6.2849    -1.7243 C.ar    
   6 C6             0.4059     7.0652    -2.7782 C.ar    
   7 C7             1.1400     7.1757    -3.9402 C.ar    
   8 C8             0.1059     6.1664    -0.4739 C.2     
   9 O9             0.4835     5.4201     0.4105 O.2     
  10 C10           -1.1224     6.9478    -0.2990 C.2     
  11 C11           -2.3783     6.4414    -0.5455 C.2     
  12 S12           -3.5673     7.6251    -0.2370 S.3     
  13 C13           -2.3552     8.8084     0.2271 C.2     
  14 C14           -1.1281     8.2736     0.1388 C.2     
  15 C15            0.1284     9.0364     0.4710 C.3     
  16 C16            0.4360     8.8878     1.9623 C.3     
  17 C17            0.5837     7.4045     2.3072 C.3     
  18 C18            1.7390     9.6198     2.2897 C.3     
  19 C19           -0.7072     9.4904     2.7814 C.3     
  20 C20           -2.6454    10.1905     0.6585 C.ar    
  21 C21           -1.9769    11.2795     0.0842 C.ar    
  22 C22           -2.2792    12.5527     0.5172 C.ar    
  23 N23           -3.1830    12.7521     1.4584 N.ar    
  24 C24           -3.8358    11.7550     2.0257 C.ar    
  25 C25           -3.6011    10.4499     1.6494 C.ar    
  26 N26           -2.6399     5.1520    -0.9829 N.am    
  27 C27           -2.7542     4.0826    -0.1748 C.2     
  28 O28           -2.6461     4.0934     1.0347 O.2     
  29 C29           -3.0331     2.8925    -1.0053 C.ar    
  30 C30           -3.0704     3.3521    -2.3378 C.ar    
  31 C31           -2.8187     4.8068    -2.2708 C.2     
  32 O32           -2.7732     5.5627    -3.2201 O.2     
  33 C33           -3.3156     2.4586    -3.3682 C.ar    
  34 C34           -3.5224     1.1184    -3.0810 C.ar    
  35 C35           -3.4862     0.6679    -1.7746 C.ar    
  36 C36           -3.2413     1.5497    -0.7336 C.ar    
  37 H37            3.7698     5.2140    -3.1285 H       
  38 H38            2.4803     5.0112    -1.0447 H       
  39 H39           -0.5363     7.5841    -2.6820 H       
  40 H40            0.7700     7.7789    -4.7561 H       
  41 H41            0.9592     8.6399    -0.1127 H       
  42 H42           -0.0128    10.0906     0.2324 H       
  43 H43            1.3981     6.9752     1.7237 H       
  44 H44            0.8029     7.2986     3.3697 H       
  45 H45           -0.3446     6.8830     2.0740 H       
  46 H46            1.6338    10.6765     2.0440 H       
  47 H47            1.9582     9.5139     3.3522 H       
  48 H48            2.5534     9.1904     1.7062 H       
  49 H49           -1.6130     8.9041     2.6273 H       
  50 H50           -0.4422     9.4786     3.8386 H       
  51 H51           -0.8807    10.5180     2.4619 H       
  52 H52           -1.2358    11.1237    -0.6858 H       
  53 H53           -1.7692    13.3988     0.0807 H       
  54 H54           -4.5672    11.9649     2.7922 H       
  55 H55           -4.1390     9.6390     2.1179 H       
  56 H56           -3.3457     2.8050    -4.3907 H       
  57 H57           -3.7135     0.4214    -3.8835 H       
  58 H58           -3.6496    -0.3787    -1.5636 H       
  59 H59           -3.2146     1.1921     0.2852 H       
@<TRIPOS>BOND
   1    1    2 1
   2    2    3 ar
   3    2    7 ar
   4    3    4 ar
   5    3   37 1
   6    4    5 ar
   7    4   38 1
   8    5    6 ar
   9    5    8 1
  10    6    7 ar
  11    6   39 1
  12    7   40 1
  13    8    9 2
  14    8   10 1
  15   10   11 2
  16   10   14 1
  17   11   12 1
  18   11   26 1
  19   12   13 1
  20   13   14 2
  21   13   20 1
  22   14   15 1
  23   15   16 1
  24   15   41 1
  25   15   42 1
  26   16   17 1
  27   16   18 1
  28   16   19 1
  29   17   43 1
  30   17   44 1
  31   17   45 1
  32   18   46 1
  33   18   47 1
  34   18   48 1
  35   19   49 1
  36   19   50 1
  37   19   51 1
  38   20   21 ar
  39   20   25 ar
  40   21   22 ar
  41   21   52 1
  42   22   23 ar
  43   22   53 1
  44   23   24 ar
  45   24   25 ar
  46   24   54 1
  47   25   55 1
  48   26   27 am
  49   26   31 am
  50   27   28 2
  51   27   29 1
  52   29   30 ar
  53   29   36 ar
  54   30   31 1
  55   30   33 ar
  56   31   32 2
  57   33   34 ar
  58   33   56 1
  59   34   35 ar
  60   34   57 1
  61   35   36 ar
  62   35   58 1
  63   36   59 1

#	End of record

