#	Name: ASD01140218
#	Creating user name:	WinNT
#	Creation time:	15. 06. 2019 19:00

#	Modifying user name:	WinNT
#	Modification time:	15. 06. 2019 19:00

#	Program:	/corina/corina34_cracker 3.40 0067  02.08.2006

@<TRIPOS>MOLECULE
ASD01140218
  46   50    0    0    0
SMALL
NO_CHARGES


@<TRIPOS>ATOM
   1 C1             0.2567     1.7696     0.4967 C.ar    
   2 C2             0.1273     0.3783     0.4967 C.ar    
   3 C3             1.2505    -0.4229     0.3333 C.ar    
   4 C4             2.5163     0.1543     0.1685 C.ar    
   5 C5             2.6264     1.5471     0.1470 C.ar    
   6 C6             1.4966     2.3416     0.3228 C.ar    
   7 C7             3.6698    -0.7457     0.0577 C.2     
   8 N8             4.6812    -0.6401    -0.7303 N.2     
   9 C9             4.7961     0.4579    -1.6973 C.3     
  10 C10            4.8233     1.7497    -0.9221 C.2     
  11 N11            3.8482     2.1855    -0.0814 N.pl3   
  12 C12           -1.1621    -0.2214     0.6653 C.1     
  13 C13            4.2706     3.3588     0.4607 C.2     
  14 C14            3.6702    -1.9178     0.9636 C.ar    
  15 C15            2.9616    -1.8751     2.1642 C.ar    
  16 C16            5.8055     2.6889    -0.9173 C.2     
  17 N17            5.4319     3.6631    -0.0479 N.2     
  18 C18            2.9658    -2.9700     3.0038 C.ar    
  19 C19            3.6713    -4.1084     2.6571 C.ar    
  20 C20            4.3765    -4.1567     1.4678 C.ar    
  21 C21            4.3745    -3.0706     0.6167 C.ar    
  22 C22           -2.2193    -0.7130     0.8036 C.1     
  23 C23            7.0486     2.6566    -1.7104 C.2     
  24 O24            7.4258     1.6986    -2.5722 O.3     
  25 N25            8.5018     1.9831    -3.0539 N.2     
  26 C26            8.9296     3.1152    -2.5779 C.2     
  27 N27            8.0069     3.5687    -1.7156 N.2     
  28 C28           10.2249     3.7977    -2.9350 C.3     
  29 C29            9.9982     4.7307    -4.1262 C.3     
  30 H30           -0.6143     2.3944     0.6284 H       
  31 H31            1.1471    -1.4979     0.3338 H       
  32 H32            1.5940     3.4172     0.3226 H       
  33 H33            5.7174     0.3510    -2.2699 H       
  34 H34            3.9387     0.4488    -2.3703 H       
  35 H35            3.7323     3.9430     1.1923 H       
  36 H36            2.4111    -0.9866     2.4363 H       
  37 H37            2.4175    -2.9381     3.9338 H       
  38 H38            3.6719    -4.9628     3.3177 H       
  39 H39            4.9259    -5.0480     1.2029 H       
  40 H40            4.9253    -3.1095    -0.3114 H       
  41 H41           -3.1647    -1.1526     0.9272 H       
  42 H42           10.5776     4.3771    -2.0817 H       
  43 H43           10.9705     3.0474    -3.1979 H       
  44 H44            9.6455     4.1514    -4.9795 H       
  45 H45            9.2525     5.4810    -3.8633 H       
  46 H46           10.9350     5.2244    -4.3845 H       
@<TRIPOS>BOND
   1    1    2 ar
   2    1    6 ar
   3    1   30 1
   4    2    3 ar
   5    2   12 1
   6    3    4 ar
   7    3   31 1
   8    4    5 ar
   9    4    7 1
  10    5    6 ar
  11    5   11 1
  12    6   32 1
  13    7    8 2
  14    7   14 1
  15    8    9 1
  16    9   10 1
  17    9   33 1
  18    9   34 1
  19   10   11 1
  20   10   16 2
  21   11   13 1
  22   12   22 3
  23   13   17 2
  24   13   35 1
  25   14   15 ar
  26   14   21 ar
  27   15   18 ar
  28   15   36 1
  29   16   17 1
  30   16   23 1
  31   18   19 ar
  32   18   37 1
  33   19   20 ar
  34   19   38 1
  35   20   21 ar
  36   20   39 1
  37   21   40 1
  38   22   41 1
  39   23   24 1
  40   23   27 2
  41   24   25 1
  42   25   26 2
  43   26   27 1
  44   26   28 1
  45   28   29 1
  46   28   42 1
  47   28   43 1
  48   29   44 1
  49   29   45 1
  50   29   46 1

#	End of record

