#	Name: ASD04500002
#	Creating user name:	WinNT
#	Creation time:	15. 06. 2019 20:49

#	Modifying user name:	WinNT
#	Modification time:	15. 06. 2019 20:49

#	Program:	/corina/corina34_cracker 3.40 0067  02.08.2006

@<TRIPOS>MOLECULE
ASD04500002
  73   77    0    0    0
SMALL
NO_CHARGES


@<TRIPOS>ATOM
   1 C1             0.0043     1.5876    -0.0997 C.ar    
   2 C2             0.0627     0.1981    -0.1480 C.ar    
   3 C3            -1.1087    -0.5419    -0.1465 C.ar    
   4 C4            -2.3319     0.1002    -0.0970 C.ar    
   5 C5            -2.3899     1.4807    -0.0494 C.ar    
   6 C6            -1.2248     2.2248    -0.0444 C.ar    
   7 C7            -3.7261     2.1757     0.0039 C.3     
   8 C8            -4.2109     2.2545     1.4579 C.3     
   9 O9            -4.6886     1.4300    -0.7495 O.3     
  10 C10           -5.9969     1.7554    -0.5621 C.ar    
  11 C11           -6.3953     2.4896     0.5485 C.ar    
  12 O12           -5.4853     2.9067     1.4708 O.3     
  13 C13           -3.2114     3.0583     2.2922 C.3     
  14 C14           -6.9401     1.3462    -1.4931 C.ar    
  15 C15           -8.2726     1.6666    -1.3153 C.ar    
  16 C16           -8.6692     2.3954    -0.2095 C.ar    
  17 C17           -7.7345     2.8060     0.7220 C.ar    
  18 C18           -9.2951     1.2212    -2.3289 C.3     
  19 O19          -10.5969     1.6180    -1.8983 O.3     
  20 C20           -8.9884     1.8714    -3.6859 C.3     
  21 C21           -9.0842     3.3746    -3.4954 C.2     
  22 C22          -10.1771     3.8601    -2.6456 C.ar    
  23 C23          -10.8948     2.9380    -1.8616 C.ar    
  24 O24           -8.2967     4.1355    -4.0188 O.2     
  25 C25          -10.5050     5.2247    -2.6106 C.ar    
  26 C26          -11.5333     5.6575    -1.7928 C.ar    
  27 C27          -12.2351     4.7448    -1.0147 C.ar    
  28 C28          -11.9183     3.3929    -1.0490 C.ar    
  29 O29           -9.8185     6.1120    -3.3724 O.3     
  30 O30            1.2669    -0.4320    -0.1971 O.3     
  31 S31            1.8470    -0.7659     1.1698 S.o2    
  32 O32            3.1717    -1.2268     0.9417 O.2     
  33 O33            1.5418     0.3349     2.0150 O.2     
  34 O34            1.0661    -1.9541     1.7127 O.3     
  35 Na35           1.5333    -3.6889     0.8570 Du      
  36 O36            1.1513     2.3183    -0.1010 O.3     
  37 C37            1.0149     3.7399    -0.0498 C.3     
  38 O38           -3.6061     3.0305     3.6653 O.3     
  39 S39           -2.6779     3.8028     4.5919 S.o2    
  40 O40           -3.0961     3.5061     5.9172 O.2     
  41 O41           -1.3571     3.5689     4.1230 O.2     
  42 O42           -2.9550     5.2836     4.3752 O.3     
  43 Na43          -4.6510     5.9189     5.1999 Du      
  44 O44           -9.9438     1.4423    -4.6581 O.3     
  45 S45           -9.3706     1.2768    -6.0583 S.o2    
  46 O46          -10.4769     1.0483    -6.9204 O.2     
  47 O47           -8.4484     2.3421    -6.2428 O.2     
  48 O48           -8.5515    -0.0060    -6.0611 O.3     
  49 Na49          -9.6480    -1.6665    -6.0856 Du      
  50 O50          -13.2401     5.1787    -0.2132 O.3     
  51 S51          -14.6061     5.1904    -0.8844 S.o2    
  52 O52          -15.4884     5.8506     0.0127 O.2     
  53 O53          -14.3923     5.6205    -2.2218 O.2     
  54 O54          -15.0794     3.7462    -0.9679 O.3     
  55 Na55         -15.7045     2.9978     0.7668 Du      
  56 H56           -1.0662    -1.6204    -0.1843 H       
  57 H57           -3.2443    -0.4777    -0.0959 H       
  58 H58           -1.2729     3.3031    -0.0072 H       
  59 H59           -3.6344     3.1807    -0.4080 H       
  60 H60           -4.3075     1.2493     1.8682 H       
  61 H61           -2.2184     2.6205     2.1906 H       
  62 H62           -3.1915     4.0899     1.9407 H       
  63 H63           -6.6329     0.7769    -2.3579 H       
  64 H64           -9.7114     2.6434    -0.0727 H       
  65 H65           -8.0470     3.3753     1.5850 H       
  66 H66           -9.2598     0.1364    -2.4286 H       
  67 H67           -7.9827     1.6014    -4.0081 H       
  68 H68          -11.7907     6.7059    -1.7587 H       
  69 H69          -12.4726     2.6945    -0.4396 H       
  70 H70          -10.1945     6.2481    -4.2529 H       
  71 H71            2.0029     4.2002    -0.0567 H       
  72 H72            0.4487     4.0820    -0.9161 H       
  73 H73            0.4891     4.0218     0.8624 H       
@<TRIPOS>BOND
   1    1    2 ar
   2    1   36 1
   3    1    6 ar
   4    2    3 ar
   5    2   30 1
   6    3    4 ar
   7    3   56 1
   8    4    5 ar
   9    4   57 1
  10    5    6 ar
  11    5    7 1
  12    6   58 1
  13    7    8 1
  14    7    9 1
  15    7   59 1
  16    8   13 1
  17    8   12 1
  18    8   60 1
  19    9   10 1
  20   10   11 ar
  21   10   14 ar
  22   11   12 1
  23   11   17 ar
  24   13   38 1
  25   13   61 1
  26   13   62 1
  27   14   15 ar
  28   14   63 1
  29   15   16 ar
  30   15   18 1
  31   16   17 ar
  32   16   64 1
  33   17   65 1
  34   18   19 1
  35   18   20 1
  36   18   66 1
  37   19   23 1
  38   20   21 1
  39   20   44 1
  40   20   67 1
  41   21   22 1
  42   21   24 2
  43   22   23 ar
  44   22   25 ar
  45   23   28 ar
  46   25   26 ar
  47   25   29 1
  48   26   27 ar
  49   26   68 1
  50   27   28 ar
  51   27   50 1
  52   28   69 1
  53   29   70 1
  54   30   31 1
  55   31   32 2
  56   31   33 2
  57   31   34 1
  58   34   35 1
  59   36   37 1
  60   37   71 1
  61   37   72 1
  62   37   73 1
  63   38   39 1
  64   39   40 2
  65   39   41 2
  66   39   42 1
  67   42   43 1
  68   44   45 1
  69   45   46 2
  70   45   47 2
  71   45   48 1
  72   48   49 1
  73   50   51 1
  74   51   52 2
  75   51   53 2
  76   51   54 1
  77   54   55 1

#	End of record

