#	Name: ASD02560286
#	Creating user name:	WinNT
#	Creation time:	15. 06. 2019 20:25

#	Modifying user name:	WinNT
#	Modification time:	15. 06. 2019 20:25

#	Program:	/corina/corina34_cracker 3.40 0067  02.08.2006

@<TRIPOS>MOLECULE
ASD02560286
  36   38    0    0    0
SMALL
NO_CHARGES


@<TRIPOS>ATOM
   1 C1            -0.0292     1.3480    -0.1108 C.2     
   2 O2            -0.0055     0.0031    -0.0350 O.3     
   3 C3            -1.2900    -0.3990    -0.0497 C.2     
   4 N4            -2.0335     0.6774    -0.1314 N.2     
   5 N5            -1.2757     1.7166    -0.1623 N.2     
   6 N6            -1.7414    -1.7054     0.0095 N.pl3   
   7 C7             1.1703     2.2602    -0.1266 C.3     
   8 C8             1.5285     2.6434     1.2862 C.ar    
   9 C9             2.4173     1.8682     2.0092 C.ar    
  10 C10            2.7461     2.2209     3.3060 C.ar    
  11 C11            2.1869     3.3475     3.8791 C.ar    
  12 C12            1.2984     4.1222     3.1573 C.ar    
  13 C13            0.9732     3.7737     1.8584 C.ar    
  14 C14           -3.1104    -1.9676     0.1274 C.ar    
  15 C15           -3.5804    -3.2722     0.0258 C.ar    
  16 C16           -4.9331    -3.5308     0.1418 C.ar    
  17 C17           -5.8216    -2.4934     0.3591 C.ar    
  18 C18           -5.3570    -1.1891     0.4612 C.ar    
  19 C19           -4.0004    -0.9267     0.3515 C.ar    
  20 Cl20           3.1194     0.4529     1.2898 Cl      
  21 Cl21          -0.1422     4.7472     0.9518 Cl      
  22 Cl22          -7.5200    -2.8224     0.5037 Cl      
  23 Cl23          -2.4679    -4.5765    -0.2474 Cl      
  24 O24           -6.2316    -0.1703     0.6739 O.3     
  25 C25           -5.6837     1.1460     0.7684 C.3     
  26 H26           -1.1086    -2.4395    -0.0307 H       
  27 H27            2.0127     1.7447    -0.5879 H       
  28 H28            0.9364     3.1581    -0.6985 H       
  29 H29            3.4397     1.6156     3.8708 H       
  30 H30            2.4439     3.6224     4.8915 H       
  31 H31            0.8612     5.0020     3.6059 H       
  32 H32           -5.2969    -4.5446     0.0624 H       
  33 H33           -3.6376     0.0875     0.4308 H       
  34 H34           -4.9785     1.1873     1.5986 H       
  35 H35           -5.1673     1.3922    -0.1594 H       
  36 H36           -6.4872     1.8627     0.9383 H       
@<TRIPOS>BOND
   1    1    2 1
   2    1    7 1
   3    1    5 2
   4    2    3 1
   5    3    4 2
   6    3    6 1
   7    4    5 1
   8    6   14 1
   9    6   26 1
  10    7    8 1
  11    7   27 1
  12    7   28 1
  13    8    9 ar
  14    8   13 ar
  15    9   10 ar
  16    9   20 1
  17   10   11 ar
  18   10   29 1
  19   11   12 ar
  20   11   30 1
  21   12   13 ar
  22   12   31 1
  23   13   21 1
  24   14   15 ar
  25   14   19 ar
  26   15   16 ar
  27   15   23 1
  28   16   17 ar
  29   16   32 1
  30   17   18 ar
  31   17   22 1
  32   18   19 ar
  33   18   24 1
  34   19   33 1
  35   24   25 1
  36   25   34 1
  37   25   35 1
  38   25   36 1

#	End of record

