#	Name: ASD00431383
#	Creating user name:	WinNT
#	Creation time:	15. 06. 2019 18:35

#	Modifying user name:	WinNT
#	Modification time:	15. 06. 2019 18:35

#	Program:	/corina/corina34_cracker 3.40 0067  02.08.2006

@<TRIPOS>MOLECULE
ASD00431383
  34   37    0    0    0
SMALL
NO_CHARGES


@<TRIPOS>ATOM
   1 C1            -0.0162     1.3410     0.0094 C.2     
   2 N2             0.0021    -0.0041     0.0020 N.am    
   3 C3             1.2637    -0.4708    -0.0125 C.2     
   4 C4             2.1916     0.6799    -0.0152 C.ar    
   5 C5             3.5709     0.8108    -0.0273 C.ar    
   6 C6             4.1413     2.0742    -0.0256 C.ar    
   7 C7             3.3438     3.2031    -0.0119 C.ar    
   8 C8             1.9626     3.0875     0.0003 C.ar    
   9 C9             1.3783     1.8310    -0.0013 C.ar    
  10 O10           -1.0118     2.0364     0.0181 O.2     
  11 O11            1.5863    -1.6416    -0.0213 O.2     
  12 C12           -1.1944    -0.8494     0.0093 C.3     
  13 C13           -1.2072    -1.7260    -1.2445 C.3     
  14 O14           -0.1175    -2.3435     1.7667 O.3     
  15 N15           -0.4107    -2.9803     2.7518 N.2     
  16 C16           -1.6922    -2.8842     3.0192 C.2     
  17 C17           -2.2432    -2.0417     2.0105 C.2     
  18 C18           -1.1826    -1.7260     1.2351 C.2     
  19 S19           -4.1400    -3.3767     4.4751 S.3     
  20 C20           -3.9683    -4.3887     5.8420 C.2     
  21 N21           -2.7364    -4.7588     5.9763 N.2     
  22 C22           -1.8750    -4.3170     5.0868 C.2     
  23 C23           -2.4165    -3.5208     4.1384 C.2     
  24 Cl24          -0.1872    -4.7212     5.1273 Cl      
  25 Cl25          -5.2637    -4.8534     6.9002 Cl      
  26 H26            4.1990    -0.0677    -0.0376 H       
  27 H27            5.2164     2.1772    -0.0346 H       
  28 H28            3.8001     4.1820    -0.0103 H       
  29 H29            1.3444     3.9730     0.0113 H       
  30 H30           -2.0841    -0.2197     0.0215 H       
  31 H31           -2.0975    -2.3549    -1.2391 H       
  32 H32           -1.2158    -1.0919    -2.1311 H       
  33 H33           -0.3176    -2.3557    -1.2567 H       
  34 H34           -3.2701    -1.7286     1.8929 H       
@<TRIPOS>BOND
   1    1    2 am
   2    1    9 1
   3    1   10 2
   4    2    3 am
   5    2   12 1
   6    3    4 1
   7    3   11 2
   8    4    5 ar
   9    4    9 ar
  10    5    6 ar
  11    5   26 1
  12    6    7 ar
  13    6   27 1
  14    7    8 ar
  15    7   28 1
  16    8    9 ar
  17    8   29 1
  18   12   13 1
  19   12   18 1
  20   12   30 1
  21   13   31 1
  22   13   32 1
  23   13   33 1
  24   14   15 1
  25   14   18 1
  26   15   16 2
  27   16   17 1
  28   16   23 1
  29   17   18 2
  30   17   34 1
  31   19   20 1
  32   19   23 1
  33   20   21 2
  34   20   25 1
  35   21   22 1
  36   22   23 2
  37   22   24 1

#	End of record

