#	Name: ASD01901537
#	Creating user name:	WinNT
#	Creation time:	15. 06. 2019 19:53

#	Modifying user name:	WinNT
#	Modification time:	15. 06. 2019 19:53

#	Program:	/corina/corina34_cracker 3.40 0067  02.08.2006

@<TRIPOS>MOLECULE
ASD01901537
  55   59    0    0    0
SMALL
NO_CHARGES


@<TRIPOS>ATOM
   1 C1            -0.0167     1.3812     0.0096 C.ar    
   2 C2             0.0021    -0.0041     0.0020 C.ar    
   3 C3            -1.1748    -0.7246     0.0110 C.ar    
   4 C4            -2.3951    -0.0613     0.0286 C.ar    
   5 C5            -2.4092     1.3398     0.0323 C.ar    
   6 C6            -1.2201     2.0576     0.0305 C.ar    
   7 O7            -3.5536    -0.7541     0.0493 O.3     
   8 C8            -4.7321    -0.1703    -0.2288 C.2     
   9 C9            -4.8983     1.1739    -0.2465 C.2     
  10 C10           -3.7271     2.0243     0.0374 C.2     
  11 N11           -3.8427     3.3075     0.2795 N.2     
  12 O12           -5.1208     3.9169     0.2734 O.3     
  13 C13           -5.8936    -1.0301    -0.5281 C.ar    
  14 C14           -5.7473    -2.4116    -0.5163 C.ar    
  15 N15           -7.0741    -0.4727    -0.8016 N.ar    
  16 C16           -8.1366    -1.1861    -1.0737 C.ar    
  17 C17           -8.0802    -2.5966    -1.0902 C.ar    
  18 C18           -6.8547    -3.2139    -0.8013 C.ar    
  19 C19           -9.1209    -3.5700    -1.3627 C.2     
  20 C20           -8.7346    -4.8308    -1.2962 C.2     
  21 S21           -7.0351    -4.9593    -0.8835 S.3     
  22 C22            1.2788     2.1510     0.0014 C.3     
  23 C23            1.7035     2.4192    -1.4438 C.3     
  24 C24            3.0188     3.2008    -1.4522 C.3     
  25 N25            3.4265     3.4584    -2.8397 N.3     
  26 C26            4.5495     4.4031    -2.8915 C.3     
  27 C27            5.0406     4.5352    -4.3349 C.3     
  28 C28            3.8911     5.0311    -5.2166 C.3     
  29 C29            2.7165     4.0549    -5.1070 C.3     
  30 C30            2.2928     3.9367    -3.6412 C.3     
  31 H31            0.9477    -0.5255    -0.0115 H       
  32 H32           -1.1471    -1.8043     0.0041 H       
  33 H33           -1.2368     3.1375     0.0371 H       
  34 H34           -5.8620     1.6110    -0.4627 H       
  35 H35           -5.1053     4.8652     0.4622 H       
  36 H36           -4.7906    -2.8590    -0.2904 H       
  37 H37           -9.0707    -0.6884    -1.2885 H       
  38 H38          -10.1349    -3.2849    -1.6014 H       
  39 H39           -9.3838    -5.6760    -1.4709 H       
  40 H40            1.1415     3.0989     0.5217 H       
  41 H41            2.0506     1.5687     0.5048 H       
  42 H42            1.8408     1.4713    -1.9641 H       
  43 H43            0.9316     3.0015    -1.9472 H       
  44 H44            2.8814     4.1487    -0.9319 H       
  45 H45            3.7906     2.6185    -0.9488 H       
  46 H46            4.2216     5.3773    -2.5288 H       
  47 H47            5.3617     4.0365    -2.2637 H       
  48 H48            5.8639     5.2483    -4.3754 H       
  49 H49            5.3815     3.5641    -4.6937 H       
  50 H50            3.5757     6.0195    -4.8822 H       
  51 H51            4.2242     5.0853    -6.2530 H       
  52 H52            1.8794     4.4249    -5.6990 H       
  53 H53            3.0209     3.0762    -5.4779 H       
  54 H54            1.4659     3.2315    -3.5579 H       
  55 H55            1.9755     4.9131    -3.2750 H       
@<TRIPOS>BOND
   1    1    2 ar
   2    1   22 1
   3    1    6 ar
   4    2    3 ar
   5    2   31 1
   6    3    4 ar
   7    3   32 1
   8    4    5 ar
   9    4    7 1
  10    5    6 ar
  11    5   10 1
  12    6   33 1
  13    7    8 1
  14    8    9 2
  15    8   13 1
  16    9   10 1
  17    9   34 1
  18   10   11 2
  19   11   12 1
  20   12   35 1
  21   13   14 ar
  22   13   15 ar
  23   14   18 ar
  24   14   36 1
  25   15   16 ar
  26   16   17 ar
  27   16   37 1
  28   17   18 ar
  29   17   19 1
  30   18   21 1
  31   19   20 2
  32   19   38 1
  33   20   21 1
  34   20   39 1
  35   22   23 1
  36   22   40 1
  37   22   41 1
  38   23   24 1
  39   23   42 1
  40   23   43 1
  41   24   25 1
  42   24   44 1
  43   24   45 1
  44   25   26 1
  45   25   30 1
  46   26   27 1
  47   26   46 1
  48   26   47 1
  49   27   28 1
  50   27   48 1
  51   27   49 1
  52   28   29 1
  53   28   50 1
  54   28   51 1
  55   29   30 1
  56   29   52 1
  57   29   53 1
  58   30   54 1
  59   30   55 1

#	End of record

