#	Name: ASD00431303
#	Creating user name:	WinNT
#	Creation time:	15. 06. 2019 18:35

#	Modifying user name:	WinNT
#	Modification time:	15. 06. 2019 18:35

#	Program:	/corina/corina34_cracker 3.40 0067  02.08.2006

@<TRIPOS>MOLECULE
ASD00431303
  31   32    0    0    0
SMALL
NO_CHARGES


@<TRIPOS>ATOM
   1 S1             0.0100     1.6959     0.0920 S.3     
   2 C2            -0.0229     0.0072    -0.1692 C.2     
   3 N3             1.1025    -0.3987    -0.6825 N.2     
   4 C4             2.0224     0.5027    -0.9019 C.2     
   5 C5             1.6501     1.7758    -0.5471 C.2     
   6 C6             2.4378     2.9372    -0.6717 C.2     
   7 O7             1.9946     4.0124    -0.3203 O.2     
   8 O8            -1.0718    -0.7958     0.1182 O.3     
   9 C9            -0.9056    -2.1381    -0.0225 C.ar    
  10 C10           -1.9973    -2.9886     0.0905 C.ar    
  11 C11           -1.8278    -4.3525    -0.0530 C.ar    
  12 C12           -0.5671    -4.8713    -0.3099 C.ar    
  13 C13            0.5231    -4.0214    -0.4221 C.ar    
  14 C14            0.3532    -2.6572    -0.2844 C.ar    
  15 O15           -0.4002    -6.2133    -0.4511 O.3     
  16 C16           -1.5452    -7.0371    -0.2223 C.3     
  17 C17           -1.3742    -8.3651    -0.9626 C.3     
  18 C18           -1.6899    -7.3041     1.2773 C.3     
  19 Cl19          -3.5746    -2.3388     0.4125 Cl      
  20 H20            2.9885     0.2676    -1.3235 H       
  21 H21            3.4357     2.8717    -1.0795 H       
  22 H22           -2.6766    -5.0144     0.0351 H       
  23 H23            1.5045    -4.4258    -0.6214 H       
  24 H24            1.2017    -1.9955    -0.3767 H       
  25 H25           -2.4373    -6.5291    -0.5886 H       
  26 H26           -0.4821    -8.8730    -0.5963 H       
  27 H27           -2.2476    -8.9934    -0.7880 H       
  28 H28           -1.2711    -8.1748    -2.0309 H       
  29 H29           -0.7978    -7.8121     1.6436 H       
  30 H30           -1.8117    -6.3580     1.8047 H       
  31 H31           -2.5633    -7.9325     1.4518 H       
@<TRIPOS>BOND
   1    1    2 1
   2    1    5 1
   3    2    3 2
   4    2    8 1
   5    3    4 1
   6    4    5 2
   7    4   20 1
   8    5    6 1
   9    6    7 2
  10    6   21 1
  11    8    9 1
  12    9   10 ar
  13    9   14 ar
  14   10   11 ar
  15   10   19 1
  16   11   12 ar
  17   11   22 1
  18   12   13 ar
  19   12   15 1
  20   13   14 ar
  21   13   23 1
  22   14   24 1
  23   15   16 1
  24   16   17 1
  25   16   18 1
  26   16   25 1
  27   17   26 1
  28   17   27 1
  29   17   28 1
  30   18   29 1
  31   18   30 1
  32   18   31 1

#	End of record

