#	Name: ASD01885913
#	Creating user name:	WinNT
#	Creation time:	15. 06. 2019 19:50

#	Modifying user name:	WinNT
#	Modification time:	15. 06. 2019 19:50

#	Program:	/corina/corina34_cracker 3.40 0067  02.08.2006

@<TRIPOS>MOLECULE
ASD01885913
  55   58    0    0    0
SMALL
NO_CHARGES


@<TRIPOS>ATOM
   1 C1            -0.0170     1.4036     0.0098 C.ar    
   2 C2            -1.2664     2.0739     0.0193 C.ar    
   3 C3            -1.2872     3.4921     0.0272 C.ar    
   4 C4            -0.0693     4.1599     0.0250 C.ar    
   5 C5             1.1201     3.4236     0.0154 C.ar    
   6 N6             1.1179     2.1037     0.0027 N.ar    
   7 C7             0.0021    -0.0041     0.0020 C.ar    
   8 C8            -1.1701    -0.6952     0.0090 C.ar    
   9 C9            -2.3952    -0.0320     0.0237 C.ar    
  10 C10           -2.4529     1.3298     0.0204 C.ar    
  11 C11           -2.5658     4.2366     0.0368 C.ar    
  12 C12           -2.9185     5.0356    -1.0515 C.ar    
  13 C13           -4.1104     5.7274    -1.0394 C.ar    
  14 C14           -3.4268     4.1370     1.1340 C.ar    
  15 C15            2.4161     4.1442     0.0065 C.2     
  16 N16            3.5721     3.4516    -0.0142 N.am    
  17 O17            2.4358     5.3590     0.0180 O.2     
  18 C18           -1.1424    -2.2019     0.0127 C.3     
  19 C19           -4.9616     5.6313     0.0543 C.ar    
  20 C20           -4.6189     4.8335     1.1377 C.ar    
  21 O21           -6.1349     6.3155     0.0614 O.3     
  22 C22           -1.8373    -2.7217     1.2728 C.3     
  23 C23           -6.9626     6.1718     1.2174 C.3     
  24 C24           -1.7026    -4.2212     1.3386 C.ar    
  25 C25           -2.7070    -5.0372     0.8508 C.ar    
  26 C26           -2.5405    -6.4136     0.9314 C.ar    
  27 C27           -1.3866    -6.9234     1.4915 C.ar    
  28 N28           -0.4444    -6.1206     1.9491 N.ar    
  29 C29           -0.5635    -4.8035     1.8855 C.ar    
  30 C30           -1.8710    -2.7284    -1.2254 C.3     
  31 N31            0.4539    -3.9953     2.3794 N.pl3   
  32 F32           -3.0931     3.3606     2.1880 F       
  33 H33           -0.0408     5.2395     0.0304 H       
  34 H34            0.9434    -0.5334    -0.0098 H       
  35 H35           -3.3109    -0.6043     0.0376 H       
  36 H36           -3.4087     1.8324     0.0276 H       
  37 H37           -2.2578     5.1121    -1.9024 H       
  38 H38           -4.3832     6.3457    -1.8818 H       
  39 H39            3.5564     2.4818    -0.0234 H       
  40 H40            4.4198     3.9230    -0.0200 H       
  41 H41           -0.1084    -2.5464    -0.0003 H       
  42 H42           -5.2834     4.7611     1.9861 H       
  43 H43           -1.3739    -2.2763     2.1532 H       
  44 H44           -2.8932    -2.4527     1.2427 H       
  45 H45           -7.8661     6.7689     1.0938 H       
  46 H46           -7.2341     5.1235     1.3419 H       
  47 H47           -6.4190     6.5135     2.0982 H       
  48 H48           -3.6009    -4.6136     0.4172 H       
  49 H49           -3.3063    -7.0784     0.5598 H       
  50 H50           -1.2533    -7.9932     1.5565 H       
  51 H51           -2.9051    -2.3840    -1.2124 H       
  52 H52           -1.3760    -2.3581    -2.1232 H       
  53 H53           -1.8510    -3.8182    -1.2227 H       
  54 H54            1.2467    -4.3968     2.7683 H       
  55 H55            0.3711    -3.0299     2.3350 H       
@<TRIPOS>BOND
   1    1    7 ar
   2    1    6 ar
   3    1    2 ar
   4    2    3 ar
   5    2   10 ar
   6    3   11 1
   7    3    4 ar
   8    4    5 ar
   9    4   33 1
  10    5   15 1
  11    5    6 ar
  12    7    8 ar
  13    7   34 1
  14    8    9 ar
  15    8   18 1
  16    9   10 ar
  17    9   35 1
  18   10   36 1
  19   11   12 ar
  20   11   14 ar
  21   12   13 ar
  22   12   37 1
  23   13   19 ar
  24   13   38 1
  25   14   32 1
  26   14   20 ar
  27   15   16 am
  28   15   17 2
  29   16   39 1
  30   16   40 1
  31   18   22 1
  32   18   30 1
  33   18   41 1
  34   19   20 ar
  35   19   21 1
  36   20   42 1
  37   21   23 1
  38   22   24 1
  39   22   43 1
  40   22   44 1
  41   23   45 1
  42   23   46 1
  43   23   47 1
  44   24   25 ar
  45   24   29 ar
  46   25   26 ar
  47   25   48 1
  48   26   27 ar
  49   26   49 1
  50   27   28 ar
  51   27   50 1
  52   28   29 ar
  53   29   31 1
  54   30   51 1
  55   30   52 1
  56   30   53 1
  57   31   54 1
  58   31   55 1

#	End of record

