#	Name: ASD06140020
#	Creating user name:	WinNT
#	Creation time:	15. 06. 2019 21:05

#	Modifying user name:	WinNT
#	Modification time:	15. 06. 2019 21:05

#	Program:	/corina/corina34_cracker 3.40 0067  02.08.2006

@<TRIPOS>MOLECULE
ASD06140020
  46   50    0    0    0
SMALL
NO_CHARGES


@<TRIPOS>ATOM
   1 N1             3.0060     1.7615     1.2878 N.am    
   2 C2             2.5326     0.5438     1.0807 C.2     
   3 C3             3.5659    -0.4863     0.8356 C.2     
   4 S4             5.0954     0.4092     0.9303 S.3     
   5 C5             4.3266     1.9706     1.2630 C.2     
   6 S6             5.1243     3.4658     1.5062 S.2     
   7 O7             1.3439     0.2914     1.0913 O.2     
   8 C8             3.3826    -1.8333     0.5899 C.2     
   9 C9             2.1183    -2.5917     0.6598 C.ar    
  10 C10            2.4551    -3.8972     0.3281 C.ar    
  11 N11            3.8233    -4.0134     0.0616 N.am    
  12 C12            4.4143    -2.8242     0.1931 C.2     
  13 O13            5.5968    -2.5932     0.0240 O.2     
  14 C14            0.7880    -2.3064     0.9593 C.ar    
  15 C15           -0.1512    -3.3205     0.9175 C.ar    
  16 C16            0.2020    -4.6231     0.5816 C.ar    
  17 C17            1.5089    -4.9165     0.2832 C.ar    
  18 C18            2.0240    -6.2780    -0.1021 C.3     
  19 C19            3.4892    -6.4125     0.3219 C.3     
  20 C20            4.3752    -5.3285    -0.3015 C.3     
  21 C21            1.2033    -7.3381     0.5860 C.ar    
  22 C22            1.9143    -6.4538    -1.6180 C.3     
  23 C23            3.5767    -6.3079     1.8458 C.3     
  24 C24            0.6661    -8.3801    -0.1465 C.ar    
  25 C25           -0.0868    -9.3526     0.4846 C.ar    
  26 C26           -0.3022    -9.2833     1.8483 C.ar    
  27 C27            0.2358    -8.2418     2.5810 C.ar    
  28 C28            0.9923    -7.2717     1.9505 C.ar    
  29 H29            2.3984     2.4994     1.4528 H       
  30 H30            0.4926    -1.3015     1.2224 H       
  31 H31           -1.1815    -3.0962     1.1511 H       
  32 H32           -0.5483    -5.3995     0.5554 H       
  33 H33            3.8580    -7.3910     0.0145 H       
  34 H34            4.3809    -5.4377    -1.3860 H       
  35 H35            5.3913    -5.4191     0.0826 H       
  36 H36            2.5065    -5.6865    -2.1166 H       
  37 H37            2.2870    -7.4392    -1.8975 H       
  38 H38            0.8711    -6.3609    -1.9200 H       
  39 H39            3.1239    -7.1907     2.2972 H       
  40 H40            4.6224    -6.2421     2.1460 H       
  41 H41            3.0460    -5.4163     2.1798 H       
  42 H42            0.8343    -8.4343    -1.2120 H       
  43 H43           -0.5071   -10.1663    -0.0878 H       
  44 H44           -0.8910   -10.0426     2.3413 H       
  45 H45            0.0673    -8.1874     3.6464 H       
  46 H46            1.4126    -6.4580     2.5229 H       
@<TRIPOS>BOND
   1    1    2 am
   2    1    5 am
   3    1   29 1
   4    2    3 1
   5    2    7 2
   6    3    4 1
   7    3    8 2
   8    4    5 1
   9    5    6 2
  10    8    9 1
  11    8   12 1
  12    9   10 ar
  13    9   14 ar
  14   10   11 1
  15   10   17 ar
  16   11   20 1
  17   11   12 am
  18   12   13 2
  19   14   15 ar
  20   14   30 1
  21   15   16 ar
  22   15   31 1
  23   16   17 ar
  24   16   32 1
  25   17   18 1
  26   18   19 1
  27   18   21 1
  28   18   22 1
  29   19   20 1
  30   19   23 1
  31   19   33 1
  32   20   34 1
  33   20   35 1
  34   21   24 ar
  35   21   28 ar
  36   22   36 1
  37   22   37 1
  38   22   38 1
  39   23   39 1
  40   23   40 1
  41   23   41 1
  42   24   25 ar
  43   24   42 1
  44   25   26 ar
  45   25   43 1
  46   26   27 ar
  47   26   44 1
  48   27   28 ar
  49   27   45 1
  50   28   46 1

#	End of record

