#	Name: ASD07480025
#	Creating user name:	WinNT
#	Creation time:	15. 06. 2019 21:11

#	Modifying user name:	WinNT
#	Modification time:	15. 06. 2019 21:11

#	Program:	/corina/corina34_cracker 3.40 0067  02.08.2006

@<TRIPOS>MOLECULE
ASD07480025
  56   59    0    0    0
SMALL
NO_CHARGES


@<TRIPOS>ATOM
   1 N1            -0.0158     1.3171     0.0093 N.ar    
   2 C2             0.0021    -0.0041     0.0020 C.ar    
   3 C3             1.1841    -0.7117    -0.0131 C.ar    
   4 C4             2.3939    -0.0166    -0.0209 C.ar    
   5 C5             2.3554     1.3936    -0.0130 C.ar    
   6 C6             1.0990     2.0391     0.0025 C.ar    
   7 N7             3.7101    -0.3930    -0.0359 N.pl3   
   8 C8             4.4975     0.7454    -0.0376 C.2     
   9 C9             3.6905     1.8431    -0.0238 C.2     
  10 C10            1.0254     3.5081     0.0106 C.2     
  11 C11            0.0848     4.2614    -0.6038 C.2     
  12 N12            0.2411     5.5558    -0.4451 N.2     
  13 C13            1.2568     5.9470     0.2662 C.2     
  14 S14            2.1426     4.5975     0.8287 S.3     
  15 N15            1.5716     7.2654     0.5344 N.pl3   
  16 C16            0.7320     8.3417     0.0028 C.3     
  17 C17            1.2965     9.6938     0.4432 C.3     
  18 C18            0.4197    10.8180    -0.1120 C.3     
  19 C19            5.9641     0.7666    -0.0516 C.2     
  20 O20            6.6553    -0.3916    -0.0641 O.3     
  21 O21            6.5569     1.8284    -0.0518 O.2     
  22 C22            4.2036    -1.7723    -0.0477 C.3     
  23 C23            4.3609    -2.2453    -1.4943 C.3     
  24 O24            4.8422    -3.5908    -1.5058 O.3     
  25 C25            5.0381    -4.1660    -2.7223 C.ar    
  26 C26            5.5039    -5.4697    -2.8061 C.ar    
  27 C27            4.7667    -3.4509    -3.8793 C.ar    
  28 C28            4.9656    -4.0351    -5.1150 C.ar    
  29 C29            5.4372    -5.3368    -5.1989 C.ar    
  30 C30            5.7029    -6.0540    -4.0418 C.ar    
  31 O31            5.6322    -5.9123    -6.4154 O.3     
  32 C32            6.1198    -7.2555    -6.4270 C.3     
  33 F33            5.2137    -8.0862    -5.7590 F       
  34 F34            6.2619    -7.6886    -7.7496 F       
  35 F35            7.3610    -7.3066    -5.7836 F       
  36 H36           -0.9338    -0.5430     0.0084 H       
  37 H37            1.1743    -1.7916    -0.0184 H       
  38 H38            4.0159     2.8730    -0.0220 H       
  39 H39           -0.7257     3.8348    -1.1760 H       
  40 H40            2.3486     7.4782     1.0747 H       
  41 H41            0.7209     8.2899    -1.0859 H       
  42 H42           -0.2839     8.2312     0.3821 H       
  43 H43            1.3076     9.7457     1.5320 H       
  44 H44            2.3124     9.8044     0.0639 H       
  45 H45            0.8219    11.7812     0.2018 H       
  46 H46            0.4086    10.7661    -1.2007 H       
  47 H47           -0.5962    10.7074     0.2674 H       
  48 H48            7.6201    -0.3271    -0.0731 H       
  49 H49            5.1690    -1.8172     0.4563 H       
  50 H50            3.4931    -2.4168     0.4700 H       
  51 H51            3.3955    -2.2005    -1.9983 H       
  52 H52            5.0714    -1.6008    -2.0120 H       
  53 H53            5.7113    -6.0279    -1.9051 H       
  54 H54            4.3994    -2.4373    -3.8140 H       
  55 H55            4.7536    -3.4785    -6.0160 H       
  56 H56            6.0704    -7.0674    -4.1071 H       
@<TRIPOS>BOND
   1    1    2 ar
   2    1    6 ar
   3    2    3 ar
   4    2   36 1
   5    3    4 ar
   6    3   37 1
   7    4    5 ar
   8    4    7 1
   9    5    6 ar
  10    5    9 1
  11    6   10 1
  12    7    8 1
  13    7   22 1
  14    8    9 2
  15    8   19 1
  16    9   38 1
  17   10   11 2
  18   10   14 1
  19   11   12 1
  20   11   39 1
  21   12   13 2
  22   13   14 1
  23   13   15 1
  24   15   16 1
  25   15   40 1
  26   16   17 1
  27   16   41 1
  28   16   42 1
  29   17   18 1
  30   17   43 1
  31   17   44 1
  32   18   45 1
  33   18   46 1
  34   18   47 1
  35   19   20 1
  36   19   21 2
  37   20   48 1
  38   22   23 1
  39   22   49 1
  40   22   50 1
  41   23   24 1
  42   23   51 1
  43   23   52 1
  44   24   25 1
  45   25   26 ar
  46   25   27 ar
  47   26   30 ar
  48   26   53 1
  49   27   28 ar
  50   27   54 1
  51   28   29 ar
  52   28   55 1
  53   29   30 ar
  54   29   31 1
  55   30   56 1
  56   31   32 1
  57   32   33 1
  58   32   34 1
  59   32   35 1

#	End of record

