#	Name: ASD01870349
#	Creating user name:	WinNT
#	Creation time:	15. 06. 2019 19:39

#	Modifying user name:	WinNT
#	Modification time:	15. 06. 2019 19:39

#	Program:	/corina/corina34_cracker 3.40 0067  02.08.2006

@<TRIPOS>MOLECULE
ASD01870349
  47   50    0    0    0
SMALL
NO_CHARGES


@<TRIPOS>ATOM
   1 C1            -0.0187     1.5266     0.0104 C.3     
   2 C2             0.0021    -0.0041     0.0020 C.3     
   3 C3             0.9922    -0.4772     1.0739 C.3     
   4 O4             2.3033    -0.0591     0.6941 O.3     
   5 C5             2.4789     1.2399     0.3425 C.ar    
   6 C6             1.3941     2.0527    -0.0002 C.ar    
   7 C7             1.6025     3.3552    -0.3538 C.ar    
   8 N8             3.7140     1.7136     0.3328 N.ar    
   9 C9             3.9820     2.9764    -0.0027 C.ar    
  10 C10            2.9228     3.8485    -0.3611 C.ar    
  11 C11            3.2014     5.1740    -0.7132 C.ar    
  12 C12            5.3056     3.4573    -0.0065 C.ar    
  13 C13            5.5625     4.7439    -0.3497 C.ar    
  14 C14            4.5181     5.6192    -0.7069 C.ar    
  15 C15            4.8221     7.0091    -1.0750 C.2     
  16 O16            3.9250     7.7649    -1.3833 O.2     
  17 C17            6.2485     7.4954    -1.0692 C.3     
  18 C18            6.8718     7.2638    -2.4472 C.3     
  19 C19            6.2767     8.9896    -0.7413 C.3     
  20 C20            7.7248     9.4832    -0.7355 C.3     
  21 C21            8.3481     9.2516    -2.1135 C.3     
  22 C22            8.3199     7.7574    -2.4414 C.3     
  23 O23            7.6040     9.9698    -3.0996 O.3     
  24 C24            8.3837    10.3989    -4.2177 C.3     
  25 H25           -0.5468     1.8871    -0.8723 H       
  26 H26           -0.5298     1.8775     0.9069 H       
  27 H27           -0.9936    -0.3864     0.2270 H       
  28 H28            0.3213    -0.3619    -0.9768 H       
  29 H29            0.7306    -0.0347     2.0351 H       
  30 H30            0.9611    -1.5643     1.1470 H       
  31 H31            0.7736     3.9934    -0.6222 H       
  32 H32            2.4007     5.8447    -0.9877 H       
  33 H33            6.1183     2.7998     0.2649 H       
  34 H34            6.5813     5.1023    -0.3488 H       
  35 H35            6.8161     6.9475    -0.3170 H       
  36 H36            6.8517     6.1993    -2.6808 H       
  37 H37            6.3042     7.8116    -3.1994 H       
  38 H38            5.7091     9.5374    -1.4935 H       
  39 H39            5.8326     9.1545     0.2404 H       
  40 H40            7.7449    10.5477    -0.5019 H       
  41 H41            8.2924     8.9354     0.0167 H       
  42 H42            9.3798     9.6033    -2.1093 H       
  43 H43            8.8875     7.2096    -1.6892 H       
  44 H44            8.7640     7.5925    -3.4231 H       
  45 H45            8.8184     9.5302    -4.7123 H       
  46 H46            7.7465    10.9360    -4.9203 H       
  47 H47            9.1809    11.0577    -3.8734 H       
@<TRIPOS>BOND
   1    1    2 1
   2    1    6 1
   3    1   25 1
   4    1   26 1
   5    2    3 1
   6    2   27 1
   7    2   28 1
   8    3    4 1
   9    3   29 1
  10    3   30 1
  11    4    5 1
  12    5    8 ar
  13    5    6 ar
  14    6    7 ar
  15    7   10 ar
  16    7   31 1
  17    8    9 ar
  18    9   12 ar
  19    9   10 ar
  20   10   11 ar
  21   11   14 ar
  22   11   32 1
  23   12   13 ar
  24   12   33 1
  25   13   14 ar
  26   13   34 1
  27   14   15 1
  28   15   16 2
  29   15   17 1
  30   17   19 1
  31   17   18 1
  32   17   35 1
  33   18   22 1
  34   18   36 1
  35   18   37 1
  36   19   20 1
  37   19   38 1
  38   19   39 1
  39   20   21 1
  40   20   40 1
  41   20   41 1
  42   21   22 1
  43   21   23 1
  44   21   42 1
  45   22   43 1
  46   22   44 1
  47   23   24 1
  48   24   45 1
  49   24   46 1
  50   24   47 1

#	End of record

