#	Name: ASD00960056
#	Creating user name:	WinNT
#	Creation time:	15. 06. 2019 18:53

#	Modifying user name:	WinNT
#	Modification time:	15. 06. 2019 18:53

#	Program:	/corina/corina34_cracker 3.40 0067  02.08.2006

@<TRIPOS>MOLECULE
ASD00960056
  37   39    0    0    0
SMALL
NO_CHARGES


@<TRIPOS>ATOM
   1 C1            -0.0189     1.5409     0.0105 C.3     
   2 C2             0.0021    -0.0041     0.0020 C.3     
   3 C3            -0.6985    -0.3962     1.3218 C.3     
   4 O4            -1.5292     0.7387     1.6500 O.3     
   5 C5            -0.7297     1.8993     1.3344 C.3     
   6 C6            -1.6237     3.1262     1.1437 C.3     
   7 C7            -1.5461    -1.6259     1.1205 C.2     
   8 C8            -1.1006    -2.9004     1.1910 C.2     
   9 N9            -2.8743    -1.6244     0.8465 N.pl3   
  10 C10           -3.3049    -2.9233     0.7303 C.2     
  11 C11           -2.1989    -3.7544     0.9443 C.2     
  12 N12           -3.8121    -0.5955     0.6748 N.2     
  13 C13           -5.0587    -0.8838     0.4115 C.2     
  14 N14           -5.4868    -2.1376     0.2972 N.2     
  15 C15           -4.6652    -3.1643     0.4446 C.2     
  16 O16           -2.2379     3.4662     2.3884 O.3     
  17 N17           -5.1344    -4.4576     0.3206 N.pl3   
  18 C18           -0.7764    -0.5442    -1.1993 C.3     
  19 C19           -2.1838    -5.1861     0.9188 C.1     
  20 N20           -2.1718    -6.3219     0.8985 N.1     
  21 O21            1.3126     2.0597     0.0006 O.3     
  22 *22            1.4358     3.3108    -0.6380 Du      
  23 O23            1.3471    -0.4865    -0.0166 O.3     
  24 *24            2.0811    -0.0947    -1.1549 Du      
  25 H25           -0.5818     1.9199    -0.8424 H       
  26 H26            0.0385    -0.5666     2.1065 H       
  27 H27            0.0026     2.0810     2.1211 H       
  28 H28           -1.0207     3.9646     0.7951 H       
  29 H29           -2.3953     2.9025     0.4070 H       
  30 H30           -0.0870    -3.2102     1.3987 H       
  31 H31           -5.7652    -0.0772     0.2828 H       
  32 H32           -2.8202     4.2368     2.3421 H       
  33 H33           -6.0708    -4.6171     0.1243 H       
  34 H34           -4.5274    -5.2063     0.4297 H       
  35 H35           -0.3071    -0.2001    -2.1209 H       
  36 H36           -0.7727    -1.6339    -1.1745 H       
  37 H37           -1.8042    -0.1834    -1.1582 H       
@<TRIPOS>BOND
   1    1    2 1
   2    1   21 1
   3    1    5 1
   4    1   25 1
   5    2   18 1
   6    2   23 1
   7    2    3 1
   8    3    4 1
   9    3    7 1
  10    3   26 1
  11    4    5 1
  12    5    6 1
  13    5   27 1
  14    6   16 1
  15    6   28 1
  16    6   29 1
  17    7    8 2
  18    7    9 1
  19    8   11 1
  20    8   30 1
  21    9   10 1
  22    9   12 1
  23   10   11 2
  24   10   15 1
  25   11   19 1
  26   12   13 2
  27   13   14 1
  28   13   31 1
  29   14   15 2
  30   15   17 1
  31   16   32 1
  32   17   33 1
  33   17   34 1
  34   18   35 1
  35   18   36 1
  36   18   37 1
  37   19   20 3
  38   21   22 1
  39   23   24 1

#	End of record

