#	Name: ASD01148272
#	Creating user name:	WinNT
#	Creation time:	15. 06. 2019 19:02

#	Modifying user name:	WinNT
#	Modification time:	15. 06. 2019 19:02

#	Program:	/corina/corina34_cracker 3.40 0067  02.08.2006

@<TRIPOS>MOLECULE
ASD01148272
  46   48    0    0    0
SMALL
NO_CHARGES


@<TRIPOS>ATOM
   1 C1            -0.0167     1.3802     0.0096 C.ar    
   2 C2             0.0021    -0.0041     0.0020 C.ar    
   3 C3            -1.1870    -0.7112     0.0101 C.ar    
   4 C4            -2.3926    -0.0358     0.0257 C.ar    
   5 C5            -2.4113     1.3467     0.0333 C.ar    
   6 C6            -1.2244     2.0547     0.0306 C.ar    
   7 C7            -3.7267     2.0819     0.0498 C.3     
   8 O8            -4.7310     1.3273     0.7580 O.3     
   9 C9            -3.6330     3.3655     0.9089 C.3     
  10 C10           -4.1234     2.8918     2.2639 C.2     
  11 N11           -4.7174     1.7567     2.1051 N.2     
  12 C12           -3.9506     3.6058     3.5442 C.ar    
  13 C13           -4.4540     3.0543     4.7252 C.ar    
  14 C14           -3.2788     4.8304     3.5761 C.ar    
  15 C15           -3.1178     5.4962     4.7702 C.ar    
  16 C16           -3.6261     4.9475     5.9499 C.ar    
  17 C17           -4.2928     3.7203     5.9191 C.ar    
  18 C18           -3.4527     5.6622     7.2319 C.2     
  19 O19           -2.8678     6.7275     7.2597 O.2     
  20 N20           -3.9431     5.1328     8.3703 N.am    
  21 C21           -4.1874     2.4065    -1.3726 C.3     
  22 F22           -4.3294     1.2193    -2.0991 F       
  23 F23           -5.4163     3.0733    -1.3241 F       
  24 F24           -3.2377     3.2235    -1.9954 F       
  25 Cl25           1.5168    -0.8520    -0.0182 Cl      
  26 Cl26           1.4744     2.2691     0.0002 Cl      
  27 C27           -3.7712     5.8413     9.6410 C.3     
  28 C28           -1.1675    -2.2181     0.0013 C.3     
  29 F29           -2.4803    -2.7015     0.0118 F       
  30 F30           -0.5137    -2.6693    -1.1503 F       
  31 F31           -0.4905    -2.6823     1.1341 F       
  32 C32           -4.4151     5.0310    10.7678 C.3     
  33 F33           -3.8035     3.7753    10.8475 F       
  34 F34           -4.2510     5.7075    11.9813 F       
  35 F35           -5.7797     4.8692    10.5049 F       
  36 H36           -3.3206    -0.5882     0.0316 H       
  37 H37           -1.2398     3.1346     0.0365 H       
  38 H38           -2.6025     3.7152     0.9709 H       
  39 H39           -4.2840     4.1447     0.5126 H       
  40 H40           -4.9697     2.1057     4.7013 H       
  41 H41           -2.8855     5.2545     2.6640 H       
  42 H42           -2.5981     6.4426     4.7949 H       
  43 H43           -4.6857     3.2962     6.8313 H       
  44 H44           -4.4098     4.2828     8.3481 H       
  45 H45           -2.7081     5.9673     9.8458 H       
  46 H46           -4.2478     6.8196     9.5789 H       
@<TRIPOS>BOND
   1    1    2 ar
   2    1   26 1
   3    1    6 ar
   4    2    3 ar
   5    2   25 1
   6    3    4 ar
   7    3   28 1
   8    4    5 ar
   9    4   36 1
  10    5    6 ar
  11    5    7 1
  12    6   37 1
  13    7    8 1
  14    7    9 1
  15    7   21 1
  16    8   11 1
  17    9   10 1
  18    9   38 1
  19    9   39 1
  20   10   11 2
  21   10   12 1
  22   12   13 ar
  23   12   14 ar
  24   13   17 ar
  25   13   40 1
  26   14   15 ar
  27   14   41 1
  28   15   16 ar
  29   15   42 1
  30   16   17 ar
  31   16   18 1
  32   17   43 1
  33   18   19 2
  34   18   20 am
  35   20   27 1
  36   20   44 1
  37   21   22 1
  38   21   23 1
  39   21   24 1
  40   27   32 1
  41   27   45 1
  42   27   46 1
  43   28   29 1
  44   28   30 1
  45   28   31 1
  46   32   33 1
  47   32   34 1
  48   32   35 1

#	End of record

