#	Name: ASD01430006
#	Creating user name:	WinNT
#	Creation time:	15. 06. 2019 19:20

#	Modifying user name:	WinNT
#	Modification time:	15. 06. 2019 19:20

#	Program:	/corina/corina34_cracker 3.40 0067  02.08.2006

@<TRIPOS>MOLECULE
ASD01430006
  16   17    0    0    0
SMALL
NO_CHARGES


@<TRIPOS>ATOM
   1 N1            -0.0162     1.3410     0.0094 N.am    
   2 C2             0.0021    -0.0041     0.0020 C.2     
   3 O3            -1.0494    -0.6148     0.0088 O.2     
   4 N4             1.1622    -0.6869    -0.0131 N.am    
   5 C5             2.3629    -0.0146    -0.0205 C.2     
   6 N6             3.6704    -0.4283    -0.0351 N.am    
   7 C7             4.4688     0.6561    -0.0364 C.2     
   8 O8             5.6857     0.6386    -0.0485 O.2     
   9 N9             3.7011     1.7645    -0.0229 N.am    
  10 C10            2.3642     1.3532    -0.0128 C.2     
  11 C11            1.1355     2.0436     0.0022 C.2     
  12 O12            1.1137     3.2621     0.0089 O.2     
  13 H13           -0.8652     1.8101     0.0160 H       
  14 H14            1.1517    -1.6569    -0.0186 H       
  15 H15            3.9707    -1.3506    -0.0429 H       
  16 H16            4.0185     2.6812    -0.0200 H       
@<TRIPOS>BOND
   1    1    2 am
   2    1   11 am
   3    1   13 1
   4    2    3 2
   5    2    4 am
   6    4    5 1
   7    4   14 1
   8    5    6 1
   9    5   10 2
  10    6    7 am
  11    6   15 1
  12    7    8 2
  13    7    9 am
  14    9   10 1
  15    9   16 1
  16   10   11 1
  17   11   12 2

#	End of record

