#	Name: ASD05060072
#	Creating user name:	WinNT
#	Creation time:	15. 06. 2019 20:56

#	Modifying user name:	WinNT
#	Modification time:	15. 06. 2019 20:56

#	Program:	/corina/corina34_cracker 3.40 0067  02.08.2006

@<TRIPOS>MOLECULE
ASD05060072
  59   62    0    0    0
SMALL
NO_CHARGES


@<TRIPOS>ATOM
   1 C1            -0.0509     1.3218    -0.0238 C.ar    
   2 C2             0.0424    -0.0662     0.0233 C.ar    
   3 N3             1.0441     2.0733    -0.0514 N.ar    
   4 C4             2.2506     1.5458    -0.0358 C.ar    
   5 C5             2.4287     0.1763     0.0104 C.ar    
   6 C6             1.3070    -0.6576     0.0410 C.ar    
   7 C7             1.4566    -2.1330     0.0913 C.ar    
   8 C8             1.0222    -2.8421     1.2094 C.ar    
   9 C9             2.0268    -2.8150    -0.9817 C.ar    
  10 C10            2.1636    -4.1874    -0.9295 C.ar    
  11 C11            1.7358    -4.8857     0.1853 C.ar    
  12 C12            1.1639    -4.2144     1.2509 C.ar    
  13 C13            3.8161    -0.4116     0.0283 C.3     
  14 C14            4.4201    -0.3158    -1.3491 C.2     
  15 O15            4.6280     0.3114     0.9557 O.3     
  16 C16            5.6557    -0.4736     1.5637 C.3     
  17 O17            3.8813    -1.0044    -2.3676 O.3     
  18 O18            5.3893     0.3809    -1.5367 O.2     
  19 C19            6.5868    -1.0219     0.4805 C.3     
  20 C20            6.4577     0.3980     2.5322 C.3     
  21 C21            5.0230    -1.6374     2.3293 C.3     
  22 C22            3.4559     2.4498    -0.0693 C.3     
  23 C23           -1.2013    -0.9167     0.0551 C.3     
  24 C24           -1.3830     1.9664    -0.0494 C.2     
  25 N25           -2.5247     1.3324    -0.1509 N.2     
  26 C26           -3.5433     2.2251    -0.1437 C.ar    
  27 C27           -2.9724     3.5054    -0.0284 C.ar    
  28 N28           -1.6071     3.3140     0.0353 N.pl3   
  29 C29           -4.9343     2.0975    -0.2237 C.ar    
  30 C30           -5.7229     3.2118    -0.1894 C.ar    
  31 C31           -5.1594     4.4753    -0.0756 C.ar    
  32 C32           -3.7914     4.6261     0.0044 C.ar    
  33 H33            0.5758    -2.3189     2.0421 H       
  34 H34            2.3608    -2.2708    -1.8528 H       
  35 H35            2.6051    -4.7171    -1.7607 H       
  36 H36            1.8444    -5.9596     0.2218 H       
  37 H37            0.8320    -4.7645     2.1190 H       
  38 H38            3.7636    -1.4577     0.3300 H       
  39 H39            4.3034    -0.9111    -3.2325 H       
  40 H40            7.0376    -0.1928    -0.0649 H       
  41 H41            7.3707    -1.6207     0.9442 H       
  42 H42            6.0155    -1.6428    -0.2095 H       
  43 H43            5.7943     0.7887     3.3039 H       
  44 H44            7.2416    -0.2008     2.9959 H       
  45 H45            6.9084     1.2271     1.9868 H       
  46 H46            4.4516    -2.2583     1.6393 H       
  47 H47            5.8069    -2.2362     2.7930 H       
  48 H48            4.3596    -1.2467     3.1009 H       
  49 H49            3.7486     2.7030     0.9497 H       
  50 H50            4.2797     1.9386    -0.5676 H       
  51 H51            3.2112     3.3615    -0.6143 H       
  52 H52           -1.5673    -1.0633    -0.9611 H       
  53 H53           -0.9687    -1.8840     0.5006 H       
  54 H54           -1.9674    -0.4181     0.6488 H       
  55 H55           -0.9321     4.0057     0.1183 H       
  56 H56           -5.3836     1.1194    -0.3128 H       
  57 H57           -6.7962     3.1091    -0.2518 H       
  58 H58           -5.7972     5.3465    -0.0502 H       
  59 H59           -3.3587     5.6117     0.0928 H       
@<TRIPOS>BOND
   1    1    2 ar
   2    1    3 ar
   3    1   24 1
   4    2   23 1
   5    2    6 ar
   6    3    4 ar
   7    4    5 ar
   8    4   22 1
   9    5    6 ar
  10    5   13 1
  11    6    7 1
  12    7    8 ar
  13    7    9 ar
  14    8   12 ar
  15    8   33 1
  16    9   10 ar
  17    9   34 1
  18   10   11 ar
  19   10   35 1
  20   11   12 ar
  21   11   36 1
  22   12   37 1
  23   13   14 1
  24   13   15 1
  25   13   38 1
  26   14   17 1
  27   14   18 2
  28   15   16 1
  29   16   19 1
  30   16   20 1
  31   16   21 1
  32   17   39 1
  33   19   40 1
  34   19   41 1
  35   19   42 1
  36   20   43 1
  37   20   44 1
  38   20   45 1
  39   21   46 1
  40   21   47 1
  41   21   48 1
  42   22   49 1
  43   22   50 1
  44   22   51 1
  45   23   52 1
  46   23   53 1
  47   23   54 1
  48   24   25 2
  49   24   28 1
  50   25   26 1
  51   26   27 ar
  52   26   29 ar
  53   27   28 1
  54   27   32 ar
  55   28   55 1
  56   29   30 ar
  57   29   56 1
  58   30   31 ar
  59   30   57 1
  60   31   32 ar
  61   31   58 1
  62   32   59 1

#	End of record

