#	Name: ASD01001278
#	Creating user name:	WinNT
#	Creation time:	15. 06. 2019 18:55

#	Modifying user name:	WinNT
#	Modification time:	15. 06. 2019 18:55

#	Program:	/corina/corina34_cracker 3.40 0067  02.08.2006

@<TRIPOS>MOLECULE
ASD01001278
  32   33    0    0    0
SMALL
NO_CHARGES


@<TRIPOS>ATOM
   1 C1             0.2663     2.0265    -0.0132 C.ar    
   2 C2             0.4024     0.6560    -0.1627 C.ar    
   3 C3            -0.7183    -0.1469    -0.2735 C.ar    
   4 C4            -1.9789     0.4132    -0.2351 C.ar    
   5 C5            -2.1231     1.7915    -0.0844 C.ar    
   6 C6            -0.9924     2.5969     0.0317 C.ar    
   7 C7            -3.4763     2.3980    -0.0431 C.ar    
   8 C8            -3.6190     3.7765     0.1076 C.ar    
   9 C9            -4.8773     4.3382     0.1453 C.ar    
  10 C10           -6.0036     3.5309     0.0335 C.ar    
  11 C11           -5.8635     2.1560    -0.1169 C.ar    
  12 C12           -4.6068     1.5910    -0.1608 C.ar    
  13 F13            1.3645     2.8059     0.0945 F       
  14 C14            1.7762     0.0381    -0.2054 C.3     
  15 F15            1.6597    -1.3473    -0.3613 F       
  16 F16            2.4935     0.5699    -1.2823 F       
  17 F17            2.4507     0.3179     0.9879 F       
  18 N18           -7.2766     4.1015     0.0728 N.am    
  19 S19           -7.8566     4.9234    -1.2427 S.o2    
  20 O20           -9.1861     5.3085    -0.9211 O.2     
  21 O21           -6.8466     5.8517    -1.6132 O.2     
  22 N22           -7.9725     3.8371    -2.4873 N.am    
  23 H23           -0.6066    -1.2147    -0.3906 H       
  24 H24           -2.8527    -0.2155    -0.3221 H       
  25 H25           -1.0986     3.6652     0.1486 H       
  26 H26           -2.7443     4.4039     0.1952 H       
  27 H27           -4.9883     5.4061     0.2621 H       
  28 H28           -6.7397     1.5306    -0.2036 H       
  29 H29           -4.4984     0.5228    -0.2777 H       
  30 H30           -7.8217     4.0167     0.8707 H       
  31 H31           -7.6909     2.9181    -2.3567 H       
  32 H32           -8.3220     4.1198    -3.3468 H       
@<TRIPOS>BOND
   1    1    2 ar
   2    1   13 1
   3    1    6 ar
   4    2    3 ar
   5    2   14 1
   6    3    4 ar
   7    3   23 1
   8    4    5 ar
   9    4   24 1
  10    5    6 ar
  11    5    7 1
  12    6   25 1
  13    7    8 ar
  14    7   12 ar
  15    8    9 ar
  16    8   26 1
  17    9   10 ar
  18    9   27 1
  19   10   11 ar
  20   10   18 1
  21   11   12 ar
  22   11   28 1
  23   12   29 1
  24   14   15 1
  25   14   16 1
  26   14   17 1
  27   18   19 am
  28   18   30 1
  29   19   20 2
  30   19   21 2
  31   19   22 am
  32   22   31 1
  33   22   32 1

#	End of record

