#	Name: ASD03092812
#	Creating user name:	WinNT
#	Creation time:	15. 06. 2019 20:33

#	Modifying user name:	WinNT
#	Modification time:	15. 06. 2019 20:33

#	Program:	/corina/corina34_cracker 3.40 0067  02.08.2006

@<TRIPOS>MOLECULE
ASD03092812
  54   57    0    0    0
SMALL
NO_CHARGES


@<TRIPOS>ATOM
   1 C1            -0.0273     1.4325    -0.0180 C.3     
   2 O2            -0.0087     0.0037    -0.0232 O.3     
   3 C3             0.5994    -0.6017    -1.0776 C.ar    
   4 C4             1.1693     0.1576    -2.0797 C.ar    
   5 C5             1.7926    -0.4537    -3.1608 C.ar    
   6 C6             1.8536    -1.8128    -3.2530 C.ar    
   7 C7             1.2831    -2.6086    -2.2494 C.ar    
   8 C8             1.1797    -4.0073    -2.0545 C.2     
   9 N9             0.5428    -4.2272    -0.9411 N.2     
  10 N10            0.1947    -3.0080    -0.3467 N.pl3   
  11 H11           -0.2851    -2.8982     0.4892 H       
  12 C12            0.6560    -1.9957    -1.1501 C.ar    
  13 C13            1.7180    -5.0657    -2.9825 C.3     
  14 C14            2.7358    -5.9298    -2.2345 C.3     
  15 C15            3.3063    -6.9824    -3.1902 C.3     
  16 N16            2.1930    -7.7370    -3.7816 N.am    
  17 C17            1.1122    -6.9966    -4.4467 C.3     
  18 C18            0.5663    -5.9438    -3.4770 C.3     
  19 C19            2.1639    -9.0829    -3.7156 C.2     
  20 O20            3.1081    -9.6891    -3.2474 O.2     
  21 N21            1.0882    -9.7567    -4.1688 N.am    
  22 C22            1.1015   -11.2213    -4.2012 C.3     
  23 C23            0.6833   -11.7655    -2.8337 C.3     
  24 C24            0.6972   -13.2950    -2.8676 C.3     
  25 C25           -0.2811   -13.7905    -3.9345 C.3     
  26 F26           -0.2684   -15.1891    -3.9655 F       
  27 F27           -1.5707   -13.3425    -3.6289 F       
  28 C28            0.1372   -13.2463    -5.3020 C.3     
  29 C29            0.1233   -11.7167    -5.2681 C.3     
  30 H30            0.9955     1.8092    -0.0220 H       
  31 H31           -0.5505     1.7924    -0.9039 H       
  32 H32           -0.5411     1.7859     0.8760 H       
  33 H33            1.1301     1.2354    -2.0232 H       
  34 H34            2.2334     0.1544    -3.9368 H       
  35 H35            2.3406    -2.2759    -4.0984 H       
  36 H36            2.2030    -4.5891    -3.8344 H       
  37 H37            3.5440    -5.3001    -1.8624 H       
  38 H38            2.2458    -6.4263    -1.3969 H       
  39 H39            3.8740    -6.4899    -3.9796 H       
  40 H40            3.9565    -7.6620    -2.6392 H       
  41 H41            1.5010    -6.5052    -5.3386 H       
  42 H42            0.3147    -7.6856    -4.7249 H       
  43 H43            0.0967    -6.4402    -2.6277 H       
  44 H44           -0.1696    -5.3242    -3.9893 H       
  45 H45            0.3052    -9.2719    -4.4734 H       
  46 H46            2.1063   -11.5703    -4.4393 H       
  47 H47            1.3802   -11.4125    -2.0736 H       
  48 H48           -0.3215   -11.4164    -2.5956 H       
  49 H49            1.7020   -13.6441    -3.1057 H       
  50 H50            0.3993   -13.6827    -1.8934 H       
  51 H51            1.1419   -13.5953    -5.5401 H       
  52 H52           -0.5598   -13.5992    -6.0621 H       
  53 H53           -0.8815   -11.3677    -5.0300 H       
  54 H54            0.4212   -11.3290    -6.2423 H       
@<TRIPOS>BOND
   1    1    2 1
   2    1   30 1
   3    1   31 1
   4    1   32 1
   5    2    3 1
   6    3   12 ar
   7    3    4 ar
   8    4    5 ar
   9    4   33 1
  10    5    6 ar
  11    5   34 1
  12    6    7 ar
  13    6   35 1
  14    7   12 ar
  15    7    8 1
  16    8    9 2
  17    8   13 1
  18    9   10 1
  19   10   11 1
  20   10   12 1
  21   13   18 1
  22   13   14 1
  23   13   36 1
  24   14   15 1
  25   14   37 1
  26   14   38 1
  27   15   16 1
  28   15   39 1
  29   15   40 1
  30   16   17 1
  31   16   19 am
  32   17   18 1
  33   17   41 1
  34   17   42 1
  35   18   43 1
  36   18   44 1
  37   19   20 2
  38   19   21 am
  39   21   22 1
  40   21   45 1
  41   22   29 1
  42   22   23 1
  43   22   46 1
  44   23   24 1
  45   23   47 1
  46   23   48 1
  47   24   25 1
  48   24   49 1
  49   24   50 1
  50   25   26 1
  51   25   27 1
  52   25   28 1
  53   28   29 1
  54   28   51 1
  55   28   52 1
  56   29   53 1
  57   29   54 1

#	End of record

