#	Name: ASD03331118
#	Creating user name:	WinNT
#	Creation time:	15. 06. 2019 20:38

#	Modifying user name:	WinNT
#	Modification time:	15. 06. 2019 20:38

#	Program:	/corina/corina34_cracker 3.40 0067  02.08.2006

@<TRIPOS>MOLECULE
ASD03331118
  50   52    0    0    0
SMALL
NO_CHARGES


@<TRIPOS>ATOM
   1 C1             0.9359     2.1653    -0.4786 C.ar    
   2 C2             0.6762     0.7099    -0.4289 C.2     
   3 N3            -0.4990     0.1255    -0.0812 N.pl3   
   4 C4            -0.3240    -1.2265    -0.1605 C.2     
   5 C5             0.9534    -1.4425    -0.5569 C.2     
   6 N6             1.5428    -0.2351    -0.7195 N.2     
   7 C7             1.5855    -2.7553    -0.7769 C.2     
   8 N8             2.8717    -2.8261    -1.1732 N.am    
   9 C9             0.0759     3.0521     0.1697 C.ar    
  10 O10            0.9464    -3.7750    -0.6009 O.2     
  11 C11            3.5001    -4.1313    -1.3919 C.3     
  12 C12            4.6568    -3.9810    -2.3819 C.3     
  13 C13            4.0331    -4.6699    -0.0627 C.3     
  14 C14            5.6204    -2.9034    -1.8806 C.3     
  15 C15           -1.7656     0.7470     0.3157 C.3     
  16 C16           -2.8712    -0.3112     0.2005 C.3     
  17 O17           -2.4567    -1.5188     0.8448 O.3     
  18 C18           -1.4111    -2.2211     0.1563 C.3     
  19 O19            5.0396    -3.7883     0.4391 O.3     
  20 C20            5.3999    -5.3128    -2.5041 C.3     
  21 C21            4.1070    -3.5763    -3.7512 C.3     
  22 C22            0.3231     4.4102     0.1201 C.ar    
  23 C23            1.4244     4.8914    -0.5737 C.ar    
  24 C24            2.2800     4.0134    -1.2189 C.ar    
  25 C25            2.0451     2.6552    -1.1692 C.ar    
  26 F26            1.6627     6.2204    -0.6204 F       
  27 F27           -0.5083     5.2708     0.7471 F       
  28 H28            3.3814    -2.0128    -1.3136 H       
  29 H29           -0.7816     2.6775     0.7091 H       
  30 H30            2.7637    -4.8259    -1.7963 H       
  31 H31            3.2165    -4.7358     0.6562 H       
  32 H32            4.4617    -5.6600    -0.2176 H       
  33 H33            6.1403    -3.2652    -0.9934 H       
  34 H34            6.3474    -2.6750    -2.6599 H       
  35 H35            5.0600    -2.0024    -1.6312 H       
  36 H36           -1.6971     1.0974     1.3456 H       
  37 H37           -1.9875     1.5850    -0.3451 H       
  38 H38           -3.7789     0.0600     0.6763 H       
  39 H39           -3.0716    -0.5125    -0.8519 H       
  40 H40           -1.7999    -2.6502    -0.7672 H       
  41 H41           -1.0148    -3.0115     0.7937 H       
  42 H42            5.4231    -4.0682     1.2816 H       
  43 H43            4.7135    -6.0804    -2.8613 H       
  44 H44            6.2241    -5.2057    -3.2094 H       
  45 H45            5.7917    -5.6011    -1.5286 H       
  46 H46            3.5776    -2.6275    -3.6641 H       
  47 H47            4.9311    -3.4692    -4.4565 H       
  48 H48            3.4205    -4.3440    -4.1083 H       
  49 H49            3.1354     4.3929    -1.7581 H       
  50 H50            2.7132     1.9722    -1.6728 H       
@<TRIPOS>BOND
   1    1    2 1
   2    1    9 ar
   3    1   25 ar
   4    2    3 1
   5    2    6 2
   6    3    4 1
   7    3   15 1
   8    4    5 2
   9    4   18 1
  10    5    6 1
  11    5    7 1
  12    7    8 am
  13    7   10 2
  14    8   11 1
  15    8   28 1
  16    9   22 ar
  17    9   29 1
  18   11   12 1
  19   11   13 1
  20   11   30 1
  21   12   14 1
  22   12   20 1
  23   12   21 1
  24   13   19 1
  25   13   31 1
  26   13   32 1
  27   14   33 1
  28   14   34 1
  29   14   35 1
  30   15   16 1
  31   15   36 1
  32   15   37 1
  33   16   17 1
  34   16   38 1
  35   16   39 1
  36   17   18 1
  37   18   40 1
  38   18   41 1
  39   19   42 1
  40   20   43 1
  41   20   44 1
  42   20   45 1
  43   21   46 1
  44   21   47 1
  45   21   48 1
  46   22   23 ar
  47   22   27 1
  48   23   24 ar
  49   23   26 1
  50   24   25 ar
  51   24   49 1
  52   25   50 1

#	End of record

