#	Name: ASD01410203
#	Creating user name:	WinNT
#	Creation time:	15. 06. 2019 19:16

#	Modifying user name:	WinNT
#	Modification time:	15. 06. 2019 19:16

#	Program:	/corina/corina34_cracker 3.40 0067  02.08.2006

@<TRIPOS>MOLECULE
ASD01410203
  73   79    0    0    0
SMALL
NO_CHARGES


@<TRIPOS>ATOM
   1 C1            -0.0170     1.4057     0.0098 C.ar    
   2 C2             0.0021    -0.0041     0.0020 C.ar    
   3 C3            -1.2036    -0.7206     0.0101 C.ar    
   4 C4            -2.3909    -0.0555     0.0254 C.ar    
   5 C5            -2.4195     1.3469     0.0327 C.ar    
   6 C6            -1.2301     2.0742     0.0300 C.ar    
   7 N7             1.2962     1.8328    -0.0005 N.pl3   
   8 C8             2.1191     0.7321    -0.0142 C.2     
   9 C9             1.3623    -0.3951    -0.0131 C.2     
  10 C10           -3.7132     2.0549     0.0483 C.2     
  11 O11           -3.7410     3.2706     0.0548 O.2     
  12 C12            5.7190     1.3119    -0.5299 C.2     
  13 O13            5.7035     0.3570     0.4125 O.3     
  14 C14            4.4452     0.0188     0.7267 C.2     
  15 C15            3.5971     0.7697    -0.0277 C.2     
  16 C16            4.4549     1.6247    -0.8583 C.2     
  17 C17            1.7392     3.2292     0.0028 C.3     
  18 N18           -4.8647     1.3545     0.0555 N.am    
  19 C19           -6.1497     2.0578     0.0710 C.3     
  20 C20           -7.2304     1.1589    -0.5331 C.3     
  21 S21           -6.5163     2.7159     3.9897 S.3     
  22 C22           -5.7025     2.1704     2.5253 C.2     
  23 C23           -6.5178     2.4005     1.4917 C.2     
  24 N24           -7.6699     2.9515     1.8165 N.2     
  25 C25           -7.8719     3.1991     3.0666 C.2     
  26 C26           -7.4166     1.6044    -3.0324 C.2     
  27 C27           -6.9261     0.9166    -1.9891 C.2     
  28 C28           -6.0386    -0.1138    -2.5337 C.ar    
  29 C29           -6.0685     0.0455    -3.9306 C.ar    
  30 N30           -6.9161     1.0991    -4.2010 N.pl3   
  31 C31           -5.2536    -1.1178    -1.9622 C.ar    
  32 C32           -4.5106    -1.9489    -2.7762 C.ar    
  33 C33           -4.5424    -1.7886    -4.1593 C.ar    
  34 C34           -5.3129    -0.8026    -4.7335 C.ar    
  35 O35           -3.7442    -2.9279    -2.2254 O.3     
  36 C36            1.3875    -2.5436     1.2249 C.3     
  37 C37            1.9118    -3.9809     1.2127 C.3     
  38 C38            1.3975    -4.7007    -0.0356 C.3     
  39 C39            1.8888    -3.9680    -1.2857 C.3     
  40 C40            1.3645    -2.5307    -1.2734 C.3     
  41 C41            1.8788    -1.8108    -0.0251 C.3     
  42 H42           -1.1898    -1.8005     0.0038 H       
  43 H43           -3.3170    -0.6111     0.0315 H       
  44 H44           -1.2544     3.1540     0.0357 H       
  45 H45            6.6057     1.7604    -0.9530 H       
  46 H46            4.1537    -0.7238     1.4548 H       
  47 H47            4.1344     2.3566    -1.5849 H       
  48 H48            1.8593     3.5698     1.0312 H       
  49 H49            2.6922     3.3092    -0.5201 H       
  50 H50            0.9957     3.8474    -0.5003 H       
  51 H51           -4.8426     0.3848     0.0504 H       
  52 H52           -6.0698     2.9737    -0.5146 H       
  53 H53           -7.2495     0.2069    -0.0026 H       
  54 H54           -8.2013     1.6458    -0.4410 H       
  55 H55           -4.7184     1.7286     2.4722 H       
  56 H56           -8.7678     3.6462     3.4714 H       
  57 H57           -8.1077     2.4312    -2.9601 H       
  58 H58           -7.1265     1.4319    -5.0875 H       
  59 H59           -5.2279    -1.2428    -0.8898 H       
  60 H60           -3.9574    -2.4442    -4.7873 H       
  61 H61           -5.3301    -0.6872    -5.8071 H       
  62 H62           -4.2034    -3.7717    -2.1151 H       
  63 H63            0.2976    -2.5545     1.2349 H       
  64 H64            1.7539    -2.0307     2.1142 H       
  65 H65            3.0017    -3.9700     1.2026 H       
  66 H66            1.5619    -4.5029     2.1032 H       
  67 H67            1.7711    -5.7247    -0.0444 H       
  68 H68            0.3076    -4.7116    -0.0256 H       
  69 H69            2.9787    -3.9571    -1.2957 H       
  70 H70            1.5224    -4.4808    -2.1750 H       
  71 H71            1.7144    -2.0087    -2.1640 H       
  72 H72            0.2746    -2.5416    -1.2634 H       
  73 H73            2.9687    -1.7999    -0.0352 H       
@<TRIPOS>BOND
   1    1    2 ar
   2    1    7 1
   3    1    6 ar
   4    2    3 ar
   5    2    9 1
   6    3    4 ar
   7    3   42 1
   8    4    5 ar
   9    4   43 1
  10    5    6 ar
  11    5   10 1
  12    6   44 1
  13    7    8 1
  14    7   17 1
  15    8    9 2
  16    8   15 1
  17    9   41 1
  18   10   11 2
  19   10   18 am
  20   12   13 1
  21   12   16 2
  22   12   45 1
  23   13   14 1
  24   14   15 2
  25   14   46 1
  26   15   16 1
  27   16   47 1
  28   17   48 1
  29   17   49 1
  30   17   50 1
  31   18   19 1
  32   18   51 1
  33   19   20 1
  34   19   23 1
  35   19   52 1
  36   20   27 1
  37   20   53 1
  38   20   54 1
  39   21   22 1
  40   21   25 1
  41   22   23 2
  42   22   55 1
  43   23   24 1
  44   24   25 2
  45   25   56 1
  46   26   27 2
  47   26   30 1
  48   26   57 1
  49   27   28 1
  50   28   29 ar
  51   28   31 ar
  52   29   30 1
  53   29   34 ar
  54   30   58 1
  55   31   32 ar
  56   31   59 1
  57   32   33 ar
  58   32   35 1
  59   33   34 ar
  60   33   60 1
  61   34   61 1
  62   35   62 1
  63   36   37 1
  64   36   41 1
  65   36   63 1
  66   36   64 1
  67   37   38 1
  68   37   65 1
  69   37   66 1
  70   38   39 1
  71   38   67 1
  72   38   68 1
  73   39   40 1
  74   39   69 1
  75   39   70 1
  76   40   41 1
  77   40   71 1
  78   40   72 1
  79   41   73 1

#	End of record

