#	Name: ASD01410093
#	Creating user name:	WinNT
#	Creation time:	15. 06. 2019 19:16

#	Modifying user name:	WinNT
#	Modification time:	15. 06. 2019 19:16

#	Program:	/corina/corina34_cracker 3.40 0067  02.08.2006

@<TRIPOS>MOLECULE
ASD01410093
  76   80    0    0    0
SMALL
NO_CHARGES


@<TRIPOS>ATOM
   1 C1            -0.0169     1.3986     0.0097 C.ar    
   2 C2             0.0021    -0.0041     0.0020 C.ar    
   3 C3            -1.1621    -0.7093     0.0093 C.ar    
   4 C4            -2.3912    -0.0347     0.0247 C.ar    
   5 C5            -2.4204     1.3751     0.0330 C.ar    
   6 C6            -1.2305     2.0850     0.0308 C.ar    
   7 C7            -3.7375    -0.4722     0.0352 C.2     
   8 C8            -4.5317     0.6283     0.0492 C.2     
   9 N9            -3.7465     1.7566     0.0481 N.pl3   
  10 C10           -6.0103     0.6156     0.0635 C.ar    
  11 C11           -6.7096     1.4578     0.9283 C.ar    
  12 C12           -8.0913    -0.2428    -0.7756 C.ar    
  13 C13           -6.7120    -0.2351    -0.7924 C.ar    
  14 C14           -4.2054    -1.9047     0.0308 C.3     
  15 C15           -3.6901    -2.6057    -1.2277 C.3     
  16 C16           -4.1652    -4.0600    -1.2322 C.3     
  17 C17           -3.6262    -4.7765     0.0076 C.3     
  18 C18           -4.1415    -4.0755     1.2661 C.3     
  19 C19           -3.6664    -2.6211     1.2706 C.3     
  20 C20            1.2513     2.1499     0.0017 C.2     
  21 O21            2.4258     1.4892    -0.0131 O.3     
  22 C22           -4.2368     3.1371     0.0614 C.3     
  23 C23           -4.3904     3.6018     1.4867 C.2     
  24 N24           -4.8314     4.8489     1.7451 N.am    
  25 O25            1.2377     3.3650     0.0083 O.2     
  26 O26           -4.1172     2.8535     2.4013 O.2     
  27 C27           -4.9807     5.3006     3.1307 C.3     
  28 C28           -3.6735     5.9408     3.6021 C.3     
  29 C29           -5.1614     5.7527     0.6404 C.3     
  30 C30           -3.4039     7.2095     2.7898 C.3     
  31 N31           -2.1602     7.8357     3.2562 N.3     
  32 C32           -2.2634     8.2368     4.6650 C.3     
  33 C33           -2.4990     6.9987     5.5333 C.3     
  34 C34           -3.7882     6.3047     5.0850 C.3     
  35 C35           -1.7965     8.9791     2.4086 C.3     
  36 F36           -8.7713     2.2556     1.7726 F       
  37 C37           -8.0916     1.4411     0.9361 C.ar    
  38 C38           -8.7808     0.5905     0.0870 C.ar    
  39 H39            0.9465    -0.5277    -0.0102 H       
  40 H40           -1.1391    -1.7891     0.0030 H       
  41 H41           -1.2430     3.1649     0.0375 H       
  42 H42           -6.1724     2.1209     1.5903 H       
  43 H43           -8.6344    -0.9007    -1.4380 H       
  44 H44           -6.1757    -0.8860    -1.4671 H       
  45 H45           -5.2951    -1.9310     0.0410 H       
  46 H46           -4.0741    -2.0953    -2.1110 H       
  47 H47           -2.6005    -2.5794    -1.2379 H       
  48 H48           -5.2549    -4.0863    -1.2220 H       
  49 H49           -3.7981    -4.5595    -2.1288 H       
  50 H50           -3.9647    -5.8126     0.0044 H       
  51 H51           -2.5366    -4.7502    -0.0026 H       
  52 H52           -5.2312    -4.1018     1.2763 H       
  53 H53           -3.7575    -4.5859     2.1494 H       
  54 H54           -2.5768    -2.5948     1.2605 H       
  55 H55           -4.0336    -2.1217     2.1672 H       
  56 H56            3.2308     2.0250    -0.0179 H       
  57 H57           -3.5250     3.7805    -0.4558 H       
  58 H58           -5.2022     3.1846    -0.4423 H       
  59 H59           -5.7858     6.0331     3.1892 H       
  60 H60           -5.2181     4.4482     3.7672 H       
  61 H61           -2.8526     5.2376     3.4618 H       
  62 H62           -6.2116     5.6328     0.3742 H       
  63 H63           -4.9796     6.7828     0.9470 H       
  64 H64           -4.5386     5.5149    -0.2220 H       
  65 H65           -3.3075     6.9518     1.7351 H       
  66 H66           -4.2320     7.9063     2.9191 H       
  67 H67           -1.3387     8.7252     4.9723 H       
  68 H68           -3.0969     8.9288     4.7855 H       
  69 H69           -1.6593     6.3124     5.4239 H       
  70 H70           -2.5912     7.2985     6.5772 H       
  71 H71           -4.6335     6.9772     5.2307 H       
  72 H72           -3.9371     5.3985     5.6720 H       
  73 H73           -2.5941     9.7215     2.4382 H       
  74 H74           -0.8719     9.4243     2.7762 H       
  75 H75           -1.6537     8.6400     1.3826 H       
  76 H76           -9.8608     0.5809     0.0956 H       
@<TRIPOS>BOND
   1    1    2 ar
   2    1   20 1
   3    1    6 ar
   4    2    3 ar
   5    2   39 1
   6    3    4 ar
   7    3   40 1
   8    4    5 ar
   9    4    7 1
  10    5    6 ar
  11    5    9 1
  12    6   41 1
  13    7    8 2
  14    7   14 1
  15    8    9 1
  16    8   10 1
  17    9   22 1
  18   10   11 ar
  19   10   13 ar
  20   11   37 ar
  21   11   42 1
  22   12   13 ar
  23   12   38 ar
  24   12   43 1
  25   13   44 1
  26   14   15 1
  27   14   19 1
  28   14   45 1
  29   15   16 1
  30   15   46 1
  31   15   47 1
  32   16   17 1
  33   16   48 1
  34   16   49 1
  35   17   18 1
  36   17   50 1
  37   17   51 1
  38   18   19 1
  39   18   52 1
  40   18   53 1
  41   19   54 1
  42   19   55 1
  43   20   21 1
  44   20   25 2
  45   21   56 1
  46   22   23 1
  47   22   57 1
  48   22   58 1
  49   23   24 am
  50   23   26 2
  51   24   27 1
  52   24   29 1
  53   27   28 1
  54   27   59 1
  55   27   60 1
  56   28   30 1
  57   28   34 1
  58   28   61 1
  59   29   62 1
  60   29   63 1
  61   29   64 1
  62   30   31 1
  63   30   65 1
  64   30   66 1
  65   31   32 1
  66   31   35 1
  67   32   33 1
  68   32   67 1
  69   32   68 1
  70   33   34 1
  71   33   69 1
  72   33   70 1
  73   34   71 1
  74   34   72 1
  75   35   73 1
  76   35   74 1
  77   35   75 1
  78   36   37 1
  79   37   38 ar
  80   38   76 1

#	End of record

