#	Name: ASD01350051
#	Creating user name:	WinNT
#	Creation time:	15. 06. 2019 19:16

#	Modifying user name:	WinNT
#	Modification time:	15. 06. 2019 19:16

#	Program:	/corina/corina34_cracker 3.40 0067  02.08.2006

@<TRIPOS>MOLECULE
ASD01350051
  25   27    0    0    0
SMALL
NO_CHARGES


@<TRIPOS>ATOM
   1 N1            -0.0169     1.3944     0.0097 N.pl3   
   2 C2             0.0021    -0.0041     0.0020 C.ar    
   3 C3             1.2165    -0.6830    -0.0132 C.ar    
   4 C4             1.2474    -2.0618    -0.0244 C.ar    
   5 C5             0.0637    -2.7868    -0.0214 C.ar    
   6 C6            -1.1628    -2.1039     0.0012 C.ar    
   7 C7            -1.1885    -0.7129     0.0153 C.ar    
   8 C8            -2.4109    -2.8918     0.0260 C.ar    
   9 C9            -3.6606    -2.3333    -0.1926 C.ar    
  10 C10           -4.7818    -3.1400    -0.1500 C.ar    
  11 C11           -4.6687    -4.4974     0.1087 C.ar    
  12 C12           -3.4323    -5.0722     0.3281 C.ar    
  13 C13           -2.2948    -4.2766     0.2876 C.ar    
  14 C14           -0.9380    -4.8104     0.5052 C.2     
  15 O15           -0.7559    -5.8163     1.1637 O.2     
  16 O16            0.0975    -4.1428    -0.0527 O.3     
  17 H17            0.8165     1.8908     0.0044 H       
  18 H18           -0.8634     1.8680     0.0163 H       
  19 H19            2.1418    -0.1261    -0.0167 H       
  20 H20            2.1954    -2.5790    -0.0358 H       
  21 H21           -2.1323    -0.1879     0.0273 H       
  22 H22           -3.7573    -1.2767    -0.3941 H       
  23 H23           -5.7570    -2.7082    -0.3197 H       
  24 H24           -5.5567    -5.1115     0.1392 H       
  25 H25           -3.3508    -6.1302     0.5293 H       
@<TRIPOS>BOND
   1    1    2 1
   2    1   17 1
   3    1   18 1
   4    2    3 ar
   5    2    7 ar
   6    3    4 ar
   7    3   19 1
   8    4    5 ar
   9    4   20 1
  10    5    6 ar
  11    5   16 1
  12    6    7 ar
  13    6    8 1
  14    7   21 1
  15    8    9 ar
  16    8   13 ar
  17    9   10 ar
  18    9   22 1
  19   10   11 ar
  20   10   23 1
  21   11   12 ar
  22   11   24 1
  23   12   13 ar
  24   12   25 1
  25   13   14 1
  26   14   15 2
  27   14   16 1

#	End of record

