#	Name: ASD02038456
#	Creating user name:	WinNT
#	Creation time:	15. 06. 2019 20:16

#	Modifying user name:	WinNT
#	Modification time:	15. 06. 2019 20:16

#	Program:	/corina/corina34_cracker 3.40 0067  02.08.2006

@<TRIPOS>MOLECULE
ASD02038456
  47   48    0    0    0
SMALL
NO_CHARGES


@<TRIPOS>ATOM
   1 C1             0.1369     1.4186     0.1352 C.3     
   2 N2             0.1307    -0.0446     0.0633 N.am    
   3 C3            -1.0301    -0.7200     0.1765 C.2     
   4 C4            -1.0364    -2.2251     0.1026 C.3     
   5 C5            -2.4697    -2.7374     0.2584 C.3     
   6 C6            -2.4760    -4.2426     0.1844 C.ar    
   7 C7            -2.3287    -4.9906     1.3382 C.ar    
   8 C8            -2.3341    -6.3701     1.2739 C.ar    
   9 C9            -2.4877    -7.0062     0.0486 C.ar    
  10 C10           -2.6354    -6.2517    -1.1084 C.ar    
  11 C11           -2.6348    -4.8726    -1.0363 C.ar    
  12 C12            1.5486     1.9232    -0.0183 C.2     
  13 O13           -2.0696    -0.1164     0.3380 O.2     
  14 N14           -2.4931    -8.4012    -0.0200 N.am    
  15 C15            1.8365     2.8111    -0.9598 C.2     
  16 C16            3.2211     3.3059    -1.1103 C.ar    
  17 C17            3.5270     4.2406    -2.1005 C.ar    
  18 C18            4.8208     4.6992    -2.2369 C.ar    
  19 C19            5.8159     4.2339    -1.3941 C.ar    
  20 C20            5.5188     3.3059    -0.4091 C.ar    
  21 C21            4.2259     2.8446    -0.2595 C.ar    
  22 Cl22           6.7725     2.7273     0.6430 Cl      
  23 Cl23           7.4420     4.8149    -1.5726 Cl      
  24 S24           -3.8246    -9.2497     0.4797 S.o2    
  25 O25           -3.4805   -10.6091     0.2499 O.2     
  26 O26           -4.0736    -8.7690     1.7935 O.2     
  27 C27           -5.1443    -8.7274    -0.6500 C.3     
  28 H28           -0.4829     1.8243    -0.6644 H       
  29 H29           -0.2598     1.7367     1.0993 H       
  30 H30            0.9621    -0.5274    -0.0659 H       
  31 H31           -0.6397    -2.5432    -0.8616 H       
  32 H32           -0.4166    -2.6308     0.9022 H       
  33 H33           -2.8664    -2.4193     1.2226 H       
  34 H34           -3.0895    -2.3317    -0.5412 H       
  35 H35           -2.2090    -4.4954     2.2904 H       
  36 H36           -2.2186    -6.9537     2.1753 H       
  37 H37           -2.7551    -6.7432    -2.0626 H       
  38 H38           -2.7500    -4.2854    -1.9354 H       
  39 H39            2.3258     1.5614     0.6386 H       
  40 H40           -1.7170    -8.8731    -0.3604 H       
  41 H41            1.0594     3.1728    -1.6167 H       
  42 H42            2.7521     4.6041    -2.7592 H       
  43 H43            5.0581     5.4225    -3.0030 H       
  44 H44            3.9948     2.1215     0.5087 H       
  45 H45           -4.8276    -8.8926    -1.6798 H       
  46 H46           -6.0450    -9.3075    -0.4494 H       
  47 H47           -5.3533    -7.6682    -0.4996 H       
@<TRIPOS>BOND
   1    1    2 1
   2    1   12 1
   3    1   28 1
   4    1   29 1
   5    2    3 am
   6    2   30 1
   7    3   13 2
   8    3    4 1
   9    4    5 1
  10    4   31 1
  11    4   32 1
  12    5    6 1
  13    5   33 1
  14    5   34 1
  15    6    7 ar
  16    6   11 ar
  17    7    8 ar
  18    7   35 1
  19    8    9 ar
  20    8   36 1
  21    9   10 ar
  22    9   14 1
  23   10   11 ar
  24   10   37 1
  25   11   38 1
  26   12   15 2
  27   12   39 1
  28   14   24 am
  29   14   40 1
  30   15   16 1
  31   15   41 1
  32   16   17 ar
  33   16   21 ar
  34   17   18 ar
  35   17   42 1
  36   18   19 ar
  37   18   43 1
  38   19   20 ar
  39   19   23 1
  40   20   21 ar
  41   20   22 1
  42   21   44 1
  43   24   25 2
  44   24   26 2
  45   24   27 1
  46   27   45 1
  47   27   46 1
  48   27   47 1

#	End of record

