#	Name: ASD01882439
#	Creating user name:	WinNT
#	Creation time:	15. 06. 2019 19:44

#	Modifying user name:	WinNT
#	Modification time:	15. 06. 2019 19:44

#	Program:	/corina/corina34_cracker 3.40 0067  02.08.2006

@<TRIPOS>MOLECULE
ASD01882439
  63   68    0    0    0
SMALL
NO_CHARGES


@<TRIPOS>ATOM
   1 C1            -0.6628     2.3786     1.9886 C.3     
   2 O2             0.0149     1.1239     1.8197 O.3     
   3 C3             1.3728     1.4776     1.4954 C.3     
   4 C4             1.6200     2.8190     2.1457 C.ar    
   5 C5             2.7733     3.5097     2.4552 C.ar    
   6 C6             2.6934     4.7488     3.0642 C.ar    
   7 C7             1.4587     5.2949     3.3623 C.ar    
   8 C8             0.3024     4.6028     3.0520 C.ar    
   9 C9             0.3814     3.3664     2.4447 C.ar    
  10 N10           -3.3823     1.7514     1.2780 N.3     
  11 C11           -2.3506     1.8281     0.2358 C.3     
  12 C12           -1.2696     2.8260     0.6598 C.3     
  13 C13           -1.7580     2.2418     3.0449 C.3     
  14 C14           -2.8238     1.2628     2.5452 C.3     
  15 C15            2.3384     0.4329     2.0585 C.3     
  16 C16            1.5407     1.5883    -0.0214 C.3     
  17 C17           -4.5094     0.9161     0.8425 C.3     
  18 C18           -7.3458     1.2028     3.3222 C.2     
  19 C19           -6.5026     1.4609     2.2243 C.2     
  20 C20           -5.4249     0.6586     2.0115 C.2     
  21 C21           -5.1688    -0.4115     2.8859 C.2     
  22 C22           -5.9860    -0.6470     3.9337 C.2     
  23 N23           -7.0700     0.1493     4.1590 N.pl3   
  24 N24           -8.8438     1.1624     4.8376 N.2     
  25 N25           -8.4379     1.7866     3.7881 N.2     
  26 C26           -8.0473     0.1601     5.1057 C.2     
  27 C27           -6.7908     2.6124     1.2959 C.3     
  28 F28           -7.3802     2.1293     0.1227 F       
  29 F29           -7.6640     3.5086     1.9216 F       
  30 F30           -5.5958     3.2683     0.9815 F       
  31 C31           -8.1852    -0.8049     6.2549 C.3     
  32 C32           -7.4241    -0.2658     7.4678 C.3     
  33 C33           -7.5392    -1.0469     8.7783 C.3     
  34 C34           -6.2362    -1.0844     7.9773 C.3     
  35 H35            3.7378     3.0830     2.2226 H       
  36 H36            3.5958     5.2899     3.3073 H       
  37 H37            1.3972     6.2625     3.8380 H       
  38 H38           -0.6619     5.0296     3.2853 H       
  39 H39           -1.9021     0.8446     0.0954 H       
  40 H40           -2.8028     2.1580    -0.6995 H       
  41 H41           -1.7130     3.8148     0.7768 H       
  42 H42           -0.4905     2.8638    -0.1016 H       
  43 H43           -1.3247     1.8659     3.9718 H       
  44 H44           -2.2140     3.2154     3.2245 H       
  45 H45           -3.6194     1.1827     3.2859 H       
  46 H46           -2.3725     0.2829     2.3894 H       
  47 H47            2.1273    -0.5370     1.6082 H       
  48 H48            3.3634     0.7246     1.8292 H       
  49 H49            2.2125     0.3670     3.1392 H       
  50 H50            1.0054     2.4662    -0.3831 H       
  51 H51            2.5992     1.6827    -0.2638 H       
  52 H52            1.1371     0.6948    -0.4978 H       
  53 H53           -5.0607     1.4311     0.0558 H       
  54 H54           -4.1323    -0.0326     0.4606 H       
  55 H55           -4.3135    -1.0492     2.7180 H       
  56 H56           -5.7799    -1.4724     4.5991 H       
  57 H57           -9.2391    -0.9193     6.5088 H       
  58 H58           -7.7734    -1.7726     5.9683 H       
  59 H59           -7.3529     0.8198     7.5336 H       
  60 H60           -7.5432    -0.4752     9.7063 H       
  61 H61           -8.1571    -1.9449     8.7765 H       
  62 H62           -5.9968    -2.0070     7.4484 H       
  63 H63           -5.3830    -0.5373     8.3783 H       
@<TRIPOS>BOND
   1    1    2 1
   2    1    9 1
   3    1   12 1
   4    1   13 1
   5    2    3 1
   6    3    4 1
   7    3   15 1
   8    3   16 1
   9    4    5 ar
  10    4    9 ar
  11    5    6 ar
  12    5   35 1
  13    6    7 ar
  14    6   36 1
  15    7    8 ar
  16    7   37 1
  17    8    9 ar
  18    8   38 1
  19   10   11 1
  20   10   14 1
  21   10   17 1
  22   11   12 1
  23   11   39 1
  24   11   40 1
  25   12   41 1
  26   12   42 1
  27   13   14 1
  28   13   43 1
  29   13   44 1
  30   14   45 1
  31   14   46 1
  32   15   47 1
  33   15   48 1
  34   15   49 1
  35   16   50 1
  36   16   51 1
  37   16   52 1
  38   17   20 1
  39   17   53 1
  40   17   54 1
  41   18   19 1
  42   18   23 1
  43   18   25 2
  44   19   20 2
  45   19   27 1
  46   20   21 1
  47   21   22 2
  48   21   55 1
  49   22   23 1
  50   22   56 1
  51   23   26 1
  52   24   25 1
  53   24   26 2
  54   26   31 1
  55   27   28 1
  56   27   29 1
  57   27   30 1
  58   31   32 1
  59   31   57 1
  60   31   58 1
  61   32   33 1
  62   32   34 1
  63   32   59 1
  64   33   34 1
  65   33   60 1
  66   33   61 1
  67   34   62 1
  68   34   63 1

#	End of record

