#	Name: ASD01810138
#	Creating user name:	WinNT
#	Creation time:	15. 06. 2019 19:23

#	Modifying user name:	WinNT
#	Modification time:	15. 06. 2019 19:23

#	Program:	/corina/corina34_cracker 3.40 0067  02.08.2006

@<TRIPOS>MOLECULE
ASD01810138
  38   41    0    0    0
SMALL
NO_CHARGES


@<TRIPOS>ATOM
   1 C1            -0.4502     0.8197    -0.6291 C.ar    
   2 C2            -0.2388    -0.5484    -0.5359 C.ar    
   3 C3             1.0321    -1.0549    -0.3732 C.ar    
   4 C4             2.1214    -0.1907    -0.3006 C.ar    
   5 C5             1.9047     1.1946    -0.3952 C.ar    
   6 C6             0.6127     1.6932    -0.5598 C.ar    
   7 N7             3.3975    -0.6849    -0.1374 N.pl3   
   8 C8             4.4770     0.1038    -0.0615 C.2     
   9 C9             4.3904     1.4790    -0.1412 C.2     
  10 C10            3.0671     2.0990    -0.3169 C.2     
  11 O11            2.9373     3.3082    -0.3931 O.2     
  12 C12            5.5993     2.3103    -0.0526 C.2     
  13 O13            5.5016     3.6525    -0.1319 O.3     
  14 O14            6.6872     1.7875     0.0920 O.2     
  15 C15            3.5807    -2.1353    -0.0424 C.3     
  16 C16            3.0086    -2.7833     1.1920 C.ar    
  17 C17            3.5435    -2.9388    -1.3440 C.3     
  18 C18            4.8721    -2.7232    -0.6149 C.3     
  19 C19            2.7284    -2.0173     2.3080 C.ar    
  20 C20            2.2036    -2.6117     3.4404 C.ar    
  21 C21            1.9585    -3.9720     3.4564 C.ar    
  22 C22            2.2378    -4.7379     2.3400 C.ar    
  23 C23            2.7585    -4.1428     1.2062 C.ar    
  24 H24           -1.4519     1.2012    -0.7610 H       
  25 H25           -1.0798    -1.2237    -0.5912 H       
  26 H26            1.1834    -2.1219    -0.3016 H       
  27 H27            0.4466     2.7579    -0.6329 H       
  28 H28            5.4480    -0.3515     0.0667 H       
  29 H29            6.3241     4.1570    -0.0685 H       
  30 H30            3.1055    -3.9362    -1.3073 H       
  31 H31            3.3826    -2.3883    -2.2709 H       
  32 H32            5.5852    -2.0309    -1.0625 H       
  33 H33            5.3077    -3.5788    -0.0990 H       
  34 H34            2.9200    -0.9545     2.2955 H       
  35 H35            1.9855    -2.0133     4.3126 H       
  36 H36            1.5492    -4.4366     4.3413 H       
  37 H37            2.0466    -5.8008     2.3527 H       
  38 H38            2.9767    -4.7411     0.3340 H       
@<TRIPOS>BOND
   1    1    2 ar
   2    1    6 ar
   3    1   24 1
   4    2    3 ar
   5    2   25 1
   6    3    4 ar
   7    3   26 1
   8    4    5 ar
   9    4    7 1
  10    5    6 ar
  11    5   10 1
  12    6   27 1
  13    7    8 1
  14    7   15 1
  15    8    9 2
  16    8   28 1
  17    9   10 1
  18    9   12 1
  19   10   11 2
  20   12   13 1
  21   12   14 2
  22   13   29 1
  23   15   16 1
  24   15   17 1
  25   15   18 1
  26   16   19 ar
  27   16   23 ar
  28   17   18 1
  29   17   30 1
  30   17   31 1
  31   18   32 1
  32   18   33 1
  33   19   20 ar
  34   19   34 1
  35   20   21 ar
  36   20   35 1
  37   21   22 ar
  38   21   36 1
  39   22   23 ar
  40   22   37 1
  41   23   38 1

#	End of record

