#	Name: ASD01411292
#	Creating user name:	WinNT
#	Creation time:	15. 06. 2019 19:19

#	Modifying user name:	WinNT
#	Modification time:	15. 06. 2019 19:19

#	Program:	/corina/corina34_cracker 3.40 0067  02.08.2006

@<TRIPOS>MOLECULE
ASD01411292
 108  114    0    0    0
SMALL
NO_CHARGES


@<TRIPOS>ATOM
   1 C1             0.1461     0.0480     0.2364 C.ar    
   2 C2             0.3194    -1.3499     0.2179 C.ar    
   3 C3            -0.8053    -2.1873     0.2583 C.ar    
   4 C4            -2.0520    -1.6527     0.3193 C.ar    
   5 C5            -2.2419    -0.2519     0.3399 C.ar    
   6 C6            -1.1337     0.5825     0.2847 C.ar    
   7 N7             1.4029     0.6203     0.2043 N.pl3   
   8 C8             2.3401    -0.3825     0.1456 C.2     
   9 C9             1.7113    -1.5880     0.1552 C.2     
  10 C10            1.6769     2.0587     0.2276 C.3     
  11 C11            0.9496     2.7049     1.3793 C.2     
  12 N12            0.8324     4.0579     1.4039 N.am    
  13 O13            0.4818     2.0286     2.2702 O.2     
  14 C14            0.0644     4.6622     2.5064 C.3     
  15 C15           -1.3296     5.0355     1.9941 C.3     
  16 C16           -2.3583     4.6762     3.0327 C.2     
  17 C17           -3.6212     0.2403     0.4185 C.2     
  18 O18           -4.5086    -0.6079     0.3446 O.2     
  19 N19           -4.0257     1.5102     0.5837 N.am    
  20 C20           -3.5012     4.1382     2.6938 C.2     
  21 C21           -3.8307     3.8567     1.2516 C.3     
  22 C22           -3.0736     2.6091     0.7870 C.3     
  23 C23            3.8063    -0.2034     0.0779 C.ar    
  24 C24            4.3567     0.7413    -0.7904 C.ar    
  25 C25            2.3849    -2.9355     0.1072 C.3     
  26 C26            2.0215    -3.7322     1.3618 C.3     
  27 C27            2.7052    -5.1001     1.3132 C.3     
  28 C28            2.2354    -5.8612     0.0718 C.3     
  29 C29            2.5989    -5.0645    -1.1828 C.3     
  30 C30            1.9151    -3.6966    -1.1341 C.3     
  31 C31            5.7238     0.9056    -0.8502 C.ar    
  32 C32            6.5537     0.1325    -0.0487 C.ar    
  33 C33            6.0102    -0.8084     0.8163 C.ar    
  34 C34            4.6437    -0.9746     0.8861 C.ar    
  35 O35            7.9008     0.2967    -0.1112 O.3     
  36 C36            8.6955    -0.5311     0.7404 C.3     
  37 C37           10.1535    -0.2099     0.5349 C.ar    
  38 C38           11.1170    -0.8174     1.3292 C.ar    
  39 C39           12.4609    -0.5212     1.1397 C.ar    
  40 C40           12.8383     0.3770     0.1618 C.ar    
  41 C41           11.8746     0.9844    -0.6326 C.ar    
  42 C42           10.5319     0.6842    -0.4470 C.ar    
  43 N43           10.7343    -1.7273     2.3206 N.3     
  44 C44           11.0573    -1.2145     3.6587 C.3     
  45 C45           10.4632    -2.1496     4.7175 C.3     
  46 N46           10.9293    -3.5181     4.4466 N.am    
  47 C47           10.7640    -4.0531     3.0866 C.3     
  48 C48           11.3462    -3.0430     2.0921 C.3     
  49 S49           11.6224    -4.4320     5.6411 S.o2    
  50 C50           10.2302    -5.3074     6.4066 C.3     
  51 O51           12.4612    -5.3426     4.9435 O.2     
  52 O52           12.1669    -3.4771     6.5416 O.2     
  53 N53           12.2579     1.8966    -1.6251 N.am    
  54 C54           13.4242     1.7297    -2.2796 C.2     
  55 O55           14.0968     0.7407    -2.0777 O.2     
  56 C56           13.8926     2.7717    -3.2623 C.3     
  57 H57           -0.6792    -3.2602     0.2381 H       
  58 H58           -2.9132    -2.3039     0.3515 H       
  59 H59           -1.2419     1.6550     0.2562 H       
  60 H60            2.7440     2.2417     0.3334 H       
  61 H61            1.3285     2.5039    -0.7069 H       
  62 H62            1.2436     4.6081     0.7180 H       
  63 H63           -0.0252     3.9514     3.3267 H       
  64 H64            0.5752     5.5596     2.8560 H       
  65 H65           -1.3667     6.1089     1.8012 H       
  66 H66           -1.5290     4.4954     1.0696 H       
  67 H67           -2.1508     4.8681     4.0789 H       
  68 H68           -4.9869     1.7071     0.5687 H       
  69 H69           -4.2228     3.8919     3.4633 H       
  70 H70           -4.9032     3.6868     1.1499 H       
  71 H71           -3.5403     4.7067     0.6353 H       
  72 H72           -2.3459     2.3312     1.5499 H       
  73 H73           -2.5643     2.8327    -0.1515 H       
  74 H74            3.7120     1.3424    -1.4145 H       
  75 H75            3.4655    -2.8002     0.0631 H       
  76 H76            2.3561    -3.1900     2.2462 H       
  77 H77            0.9408    -3.8676     1.4059 H       
  78 H78            3.7858    -4.9648     1.2691 H       
  79 H79            2.4463    -5.6677     2.2070 H       
  80 H80            2.7225    -6.8357     0.0371 H       
  81 H81            1.1548    -5.9965     0.1159 H       
  82 H82            3.6795    -4.9291    -1.2269 H       
  83 H83            2.2642    -5.6067    -2.0672 H       
  84 H84            0.8345    -3.8319    -1.0900 H       
  85 H85            2.1740    -3.1290    -2.0279 H       
  86 H86            6.1503     1.6362    -1.5216 H       
  87 H87            6.6588    -1.4077     1.4379 H       
  88 H88            4.2217    -1.7062     1.5593 H       
  89 H89            8.4260    -0.3471     1.7804 H       
  90 H90            8.5167    -1.5788     0.4985 H       
  91 H91           13.2103    -0.9933     1.7576 H       
  92 H92           13.8830     0.6076     0.0146 H       
  93 H93            9.7826     1.1564    -1.0651 H       
  94 H94           12.1396    -1.1693     3.7795 H       
  95 H95           10.6357    -0.2164     3.7773 H       
  96 H96           10.7954    -1.8390     5.7081 H       
  97 H97            9.3750    -2.1166     4.6660 H       
  98 H98           11.2950    -5.0010     2.9990 H       
  99 H99            9.7047    -4.2030     2.8784 H       
 100 H100          11.1342    -3.3710     1.0744 H       
 101 H101          12.4245    -2.9724     2.2346 H       
 102 H102           9.7336    -5.9249     5.6582 H       
 103 H103          10.5987    -5.9406     7.2136 H       
 104 H104           9.5218    -4.5827     6.8080 H       
 105 H105          11.6839     2.6481    -1.8410 H       
 106 H106          13.1631     3.5802    -3.3099 H       
 107 H107          14.8549     3.1691    -2.9395 H       
 108 H108          13.9987     2.3195    -4.2484 H       
@<TRIPOS>BOND
   1    1    2 ar
   2    1    7 1
   3    1    6 ar
   4    2    3 ar
   5    2    9 1
   6    3    4 ar
   7    3   57 1
   8    4    5 ar
   9    4   58 1
  10    5    6 ar
  11    5   17 1
  12    6   59 1
  13    7    8 1
  14    7   10 1
  15    8    9 2
  16    8   23 1
  17    9   25 1
  18   10   11 1
  19   10   60 1
  20   10   61 1
  21   11   12 am
  22   11   13 2
  23   12   14 1
  24   12   62 1
  25   14   15 1
  26   14   63 1
  27   14   64 1
  28   15   16 1
  29   15   65 1
  30   15   66 1
  31   16   20 2
  32   16   67 1
  33   17   18 2
  34   17   19 am
  35   19   22 1
  36   19   68 1
  37   20   21 1
  38   20   69 1
  39   21   22 1
  40   21   70 1
  41   21   71 1
  42   22   72 1
  43   22   73 1
  44   23   24 ar
  45   23   34 ar
  46   24   31 ar
  47   24   74 1
  48   25   26 1
  49   25   30 1
  50   25   75 1
  51   26   27 1
  52   26   76 1
  53   26   77 1
  54   27   28 1
  55   27   78 1
  56   27   79 1
  57   28   29 1
  58   28   80 1
  59   28   81 1
  60   29   30 1
  61   29   82 1
  62   29   83 1
  63   30   84 1
  64   30   85 1
  65   31   32 ar
  66   31   86 1
  67   32   33 ar
  68   32   35 1
  69   33   34 ar
  70   33   87 1
  71   34   88 1
  72   35   36 1
  73   36   37 1
  74   36   89 1
  75   36   90 1
  76   37   38 ar
  77   37   42 ar
  78   38   39 ar
  79   38   43 1
  80   39   40 ar
  81   39   91 1
  82   40   41 ar
  83   40   92 1
  84   41   42 ar
  85   41   53 1
  86   42   93 1
  87   43   44 1
  88   43   48 1
  89   44   45 1
  90   44   94 1
  91   44   95 1
  92   45   46 1
  93   45   96 1
  94   45   97 1
  95   46   47 1
  96   46   49 am
  97   47   48 1
  98   47   98 1
  99   47   99 1
 100   48  100 1
 101   48  101 1
 102   49   50 1
 103   49   51 2
 104   49   52 2
 105   50  102 1
 106   50  103 1
 107   50  104 1
 108   53   54 am
 109   53  105 1
 110   54   55 2
 111   54   56 1
 112   56  106 1
 113   56  107 1
 114   56  108 1

#	End of record

