#	Name: ASD03091572
#	Creating user name:	WinNT
#	Creation time:	15. 06. 2019 20:31

#	Modifying user name:	WinNT
#	Modification time:	15. 06. 2019 20:31

#	Program:	/corina/corina34_cracker 3.40 0067  02.08.2006

@<TRIPOS>MOLECULE
ASD03091572
  47   49    0    0    0
SMALL
NO_CHARGES


@<TRIPOS>ATOM
   1 C1             0.0348     1.2324    -0.2081 C.2     
   2 C2            -0.0590    -0.0921     0.0326 C.2     
   3 N3            -1.2850    -0.5184     0.2455 N.2     
   4 C4            -2.2348     0.3668     0.1993 C.2     
   5 S5            -1.5882     1.9136    -0.1347 S.3     
   6 N6            -3.5767     0.0972     0.3982 N.3     
   7 C7            -3.7923    -1.3311     0.6713 C.3     
   8 C8            -4.3782     0.5340    -0.7543 C.3     
   9 C9            -5.8591     0.2720    -0.4677 C.3     
  10 O10           -6.0445    -1.1153    -0.1739 O.3     
  11 C11           -5.2791    -1.5744     0.9435 C.3     
  12 C12           -5.5226    -3.0708     1.1494 C.3     
  13 C13           -6.3039     1.1121     0.7312 C.3     
  14 C14            1.2785     1.9796    -0.4788 C.ar    
  15 C15            1.3621     2.8737    -1.5545 C.ar    
  16 C16            2.4071     1.8193     0.3363 C.ar    
  17 C17            3.5471     2.5374     0.0471 C.ar    
  18 N18            3.5843     3.3662    -0.9798 N.ar    
  19 C19            2.5429     3.5507    -1.7700 C.ar    
  20 C20            1.1394    -1.0056     0.0555 C.3     
  21 N21            1.6047    -1.1683     1.4394 N.3     
  22 C22            2.6486     4.5107    -2.9268 C.3     
  23 C23            4.7681     2.3747     0.9153 C.3     
  24 H24           -3.4796    -1.9181    -0.1923 H       
  25 H25           -3.2094    -1.6269     1.5435 H       
  26 H26           -4.2230     1.5997    -0.9226 H       
  27 H27           -4.0749    -0.0231    -1.6407 H       
  28 H28           -6.4521     0.5414    -1.3417 H       
  29 H29           -5.5791    -1.0296     1.8387 H       
  30 H30           -5.2205    -3.6146     0.2544 H       
  31 H31           -4.9390    -3.4201     2.0012 H       
  32 H32           -6.5819    -3.2437     1.3394 H       
  33 H33           -6.1587     2.1691     0.5081 H       
  34 H34           -7.3583     0.9251     0.9347 H       
  35 H35           -5.7115     0.8405     1.6049 H       
  36 H36            0.5141     3.0296    -2.2050 H       
  37 H37            2.3837     1.1436     1.1785 H       
  38 H38            0.8628    -1.9781    -0.3515 H       
  39 H39            1.9376    -0.5729    -0.5477 H       
  40 H40            0.8626    -1.5075     2.0328 H       
  41 H41            2.4083    -1.7770     1.4814 H       
  42 H42            2.9978     3.9773    -3.8109 H       
  43 H43            1.6698     4.9462    -3.1282 H       
  44 H44            3.3546     5.3030    -2.6781 H       
  45 H45            5.3903     1.5716     0.5204 H       
  46 H46            5.3361     3.3050     0.9214 H       
  47 H47            4.4609     2.1299     1.9320 H       
@<TRIPOS>BOND
   1    1    2 2
   2    1   14 1
   3    1    5 1
   4    2    3 1
   5    2   20 1
   6    3    4 2
   7    4    5 1
   8    4    6 1
   9    6    7 1
  10    6    8 1
  11    7   11 1
  12    7   24 1
  13    7   25 1
  14    8    9 1
  15    8   26 1
  16    8   27 1
  17    9   10 1
  18    9   13 1
  19    9   28 1
  20   10   11 1
  21   11   12 1
  22   11   29 1
  23   12   30 1
  24   12   31 1
  25   12   32 1
  26   13   33 1
  27   13   34 1
  28   13   35 1
  29   14   15 ar
  30   14   16 ar
  31   15   19 ar
  32   15   36 1
  33   16   17 ar
  34   16   37 1
  35   17   18 ar
  36   17   23 1
  37   18   19 ar
  38   19   22 1
  39   20   21 1
  40   20   38 1
  41   20   39 1
  42   21   40 1
  43   21   41 1
  44   22   42 1
  45   22   43 1
  46   22   44 1
  47   23   45 1
  48   23   46 1
  49   23   47 1

#	End of record

