#	Name: ASD01910452
#	Creating user name:	WinNT
#	Creation time:	15. 06. 2019 19:55

#	Modifying user name:	WinNT
#	Modification time:	15. 06. 2019 19:55

#	Program:	/corina/corina34_cracker 3.40 0067  02.08.2006

@<TRIPOS>MOLECULE
ASD01910452
  41   44    0    0    0
SMALL
NO_CHARGES


@<TRIPOS>ATOM
   1 C1             0.0502     1.2876    -0.0260 C.ar    
   2 C2             0.0847    -0.0975    -0.0406 C.ar    
   3 C3             1.2994    -0.7641    -0.0583 C.ar    
   4 C4             2.4801    -0.0506    -0.0610 C.ar    
   5 C5             2.4500     1.3426    -0.0464 C.ar    
   6 C6             1.2262     2.0090    -0.0291 C.ar    
   7 F7            -1.0692    -0.8001    -0.0371 F       
   8 C8             3.7174     2.1142    -0.0487 C.2     
   9 N9             3.8372     3.4611    -0.0358 N.2     
  10 C10            5.1250     3.6998    -0.0430 C.2     
  11 O11            5.7447     2.5156    -0.0598 O.3     
  12 N12            4.9278     1.6191    -0.0579 N.2     
  13 C13            5.7842     5.0549    -0.0345 C.3     
  14 C14            6.6655     5.1864     1.2097 C.3     
  15 C15            7.3097     6.5744     1.2363 C.3     
  16 C16            8.1938     6.7465    -0.0029 C.3     
  17 N17            7.3863     6.4788    -1.2008 N.am    
  18 C18            6.6510     5.2097    -1.2881 C.3     
  19 C19            7.3213     7.3802    -2.2006 C.2     
  20 C20            7.9872     8.6841    -2.0597 C.2     
  21 O21            6.7118     7.1155    -3.2196 O.2     
  22 C22            9.3872     8.8332    -1.7355 C.2     
  23 C23            9.7719    10.1011    -1.6596 C.2     
  24 S24            8.4236    11.1764    -1.9850 S.3     
  25 C25            7.3492     9.8754    -2.2270 C.2     
  26 Br26           5.5177    10.0614    -2.6593 Br      
  27 H27           -0.8987     1.8033    -0.0168 H       
  28 H28            1.3218    -1.8438    -0.0696 H       
  29 H29            3.4264    -0.5709    -0.0740 H       
  30 H30            1.1984     3.0885    -0.0181 H       
  31 H31            5.0194     5.8315    -0.0223 H       
  32 H32            6.0553     5.0522     2.1028 H       
  33 H33            7.4449     4.4248     1.1848 H       
  34 H34            6.5308     7.3370     1.2362 H       
  35 H35            7.9186     6.6758     2.1346 H       
  36 H36            8.5760     7.7666    -0.0403 H       
  37 H37            9.0258     6.0437     0.0415 H       
  38 H38            7.3572     4.3817    -1.3485 H       
  39 H39            6.0153     5.2159    -2.1734 H       
  40 H40           10.0525     7.9984    -1.5711 H       
  41 H41           10.7757    10.4263    -1.4292 H       
@<TRIPOS>BOND
   1    1    2 ar
   2    1    6 ar
   3    1   27 1
   4    2    3 ar
   5    2    7 1
   6    3    4 ar
   7    3   28 1
   8    4    5 ar
   9    4   29 1
  10    5    6 ar
  11    5    8 1
  12    6   30 1
  13    8    9 1
  14    8   12 2
  15    9   10 2
  16   10   11 1
  17   10   13 1
  18   11   12 1
  19   13   14 1
  20   13   18 1
  21   13   31 1
  22   14   15 1
  23   14   32 1
  24   14   33 1
  25   15   16 1
  26   15   34 1
  27   15   35 1
  28   16   17 1
  29   16   36 1
  30   16   37 1
  31   17   18 1
  32   17   19 am
  33   18   38 1
  34   18   39 1
  35   19   20 1
  36   19   21 2
  37   20   22 1
  38   20   25 2
  39   22   23 2
  40   22   40 1
  41   23   24 1
  42   23   41 1
  43   24   25 1
  44   25   26 1

#	End of record

