#	Name: ASD03090205
#	Creating user name:	WinNT
#	Creation time:	15. 06. 2019 20:28

#	Modifying user name:	WinNT
#	Modification time:	15. 06. 2019 20:28

#	Program:	/corina/corina34_cracker 3.40 0067  02.08.2006

@<TRIPOS>MOLECULE
ASD03090205
  51   54    0    0    0
SMALL
NO_CHARGES


@<TRIPOS>ATOM
   1 C1            -0.3193     1.0343    -0.7358 C.ar    
   2 C2            -0.1780    -0.1070     0.0432 C.ar    
   3 C3             1.0554    -0.7079     0.1777 C.ar    
   4 C4             2.1677    -0.1693    -0.4706 C.ar    
   5 C5             2.0271     0.9776    -1.2523 C.ar    
   6 C6             0.7866     1.5776    -1.3825 C.ar    
   7 C7             3.4919    -0.8124    -0.3289 C.2     
   8 N8             7.0042    -0.8647    -0.4738 N.pl3   
   9 C9             7.4353     0.3569    -0.9977 C.ar    
  10 C10            6.6553     1.0283    -1.9304 C.ar    
  11 C11            7.0842     2.2359    -2.4459 C.ar    
  12 C12            8.2885     2.7763    -2.0344 C.ar    
  13 C13            9.0679     2.1102    -1.1061 C.ar    
  14 C14            8.6425     0.9054    -0.5824 C.ar    
  15 N15            4.6588    -0.2446    -0.5617 N.2     
  16 C16            5.6390    -1.1201    -0.3304 C.2     
  17 N17            5.1132    -2.2601     0.0536 N.2     
  18 N18            3.7201    -2.0847     0.0679 N.pl3   
  19 C19            2.7131    -3.0845     0.4323 C.3     
  20 C20            2.4644    -3.0287     1.9176 C.2     
  21 O21            1.5740    -3.8605     2.4806 O.3     
  22 O22            3.0665    -2.2352     2.6016 O.2     
  23 C23            1.3857    -3.7508     3.9162 C.3     
  24 O24            0.6667     2.7006    -2.1426 O.3     
  25 C25           -0.6563     3.0613    -2.5539 C.3     
  26 C26           -1.5835     2.9566    -1.3355 C.3     
  27 O27           -1.5479     1.6060    -0.8608 O.3     
  28 C28            0.3410    -4.7711     4.3729 C.3     
  29 C29           10.3802     2.7027    -0.6613 C.3     
  30 F30           10.5905     3.9183    -1.3211 F       
  31 F31           10.3489     2.9212     0.7201 F       
  32 F32           11.4195     1.8186    -0.9701 F       
  33 H33           -1.0377    -0.5250     0.5458 H       
  34 H34            1.1609    -1.5948     0.7849 H       
  35 H35            2.8856     1.3968    -1.7559 H       
  36 H36            7.6534    -1.5353    -0.2097 H       
  37 H37            5.7147     0.6065    -2.2525 H       
  38 H38            6.4783     2.7583    -3.1714 H       
  39 H39            8.6215     3.7207    -2.4390 H       
  40 H40            9.2514     0.3859     0.1427 H       
  41 H41            1.7849    -2.8758    -0.0996 H       
  42 H42            3.0721    -4.0773     0.1610 H       
  43 H43            2.3307    -3.9470     4.4227 H       
  44 H44            1.0435    -2.7455     4.1620 H       
  45 H45           -0.6582     4.0842    -2.9304 H       
  46 H46           -0.9969     2.3811    -3.3345 H       
  47 H47           -1.2390     3.6319    -0.5523 H       
  48 H48           -2.6016     3.2173    -1.6248 H       
  49 H49            0.6831    -5.7764     4.1271 H       
  50 H50            0.1996    -4.6887     5.4505 H       
  51 H51           -0.6041    -4.5749     3.8664 H       
@<TRIPOS>BOND
   1    1    2 ar
   2    1    6 ar
   3    1   27 1
   4    2    3 ar
   5    2   33 1
   6    3    4 ar
   7    3   34 1
   8    4    5 ar
   9    4    7 1
  10    5    6 ar
  11    5   35 1
  12    6   24 1
  13    7   15 2
  14    7   18 1
  15    8    9 1
  16    8   16 1
  17    8   36 1
  18    9   10 ar
  19    9   14 ar
  20   10   11 ar
  21   10   37 1
  22   11   12 ar
  23   11   38 1
  24   12   13 ar
  25   12   39 1
  26   13   14 ar
  27   13   29 1
  28   14   40 1
  29   15   16 1
  30   16   17 2
  31   17   18 1
  32   18   19 1
  33   19   20 1
  34   19   41 1
  35   19   42 1
  36   20   21 1
  37   20   22 2
  38   21   23 1
  39   23   28 1
  40   23   43 1
  41   23   44 1
  42   24   25 1
  43   25   26 1
  44   25   45 1
  45   25   46 1
  46   26   27 1
  47   26   47 1
  48   26   48 1
  49   28   49 1
  50   28   50 1
  51   28   51 1
  52   29   30 1
  53   29   31 1
  54   29   32 1

#	End of record

