#	Name: ASD01913808
#	Creating user name:	WinNT
#	Creation time:	15. 06. 2019 20:02

#	Modifying user name:	WinNT
#	Modification time:	15. 06. 2019 20:02

#	Program:	/corina/corina34_cracker 3.40 0067  02.08.2006

@<TRIPOS>MOLECULE
ASD01913808
  38   40    0    0    0
SMALL
NO_CHARGES


@<TRIPOS>ATOM
   1 C1            -0.0206     1.4273     0.0508 C.ar    
   2 C2            -0.0002    -0.0044     0.0308 C.1     
   3 C3             0.0165    -1.1781     0.0143 C.1     
   4 C4             0.0369    -2.6099    -0.0057 C.ar    
   5 C5            -1.1388    -3.3355    -0.2493 C.ar    
   6 C6             0.1560    -5.3344    -0.0290 C.ar    
   7 N7             1.2500    -4.6215     0.1928 N.ar    
   8 C8             1.2287    -3.3050     0.2112 C.ar    
   9 C9            -1.0683    -4.7141    -0.2591 C.ar    
  10 N10            0.2331    -6.7253    -0.0380 N.am    
  11 C11           -0.8122    -7.5638    -0.0329 C.2     
  12 O12           -0.4687    -8.8566    -0.0438 O.3     
  13 C13            0.9835    -8.9734    -0.0585 C.3     
  14 C14            1.4751    -7.5130    -0.0610 C.3     
  15 C15            1.4752    -9.7082     1.1902 C.3     
  16 C16            1.4509    -9.6933    -1.3251 C.3     
  17 O17           -1.9664    -7.1844    -0.0189 O.2     
  18 C18            1.1563     2.1439     0.2945 C.ar    
  19 C19            1.1289     3.5252     0.3123 C.ar    
  20 C20           -0.0580     4.1996     0.0906 C.ar    
  21 C21           -1.2280     3.4965    -0.1510 C.ar    
  22 C22           -1.2147     2.1157    -0.1786 C.ar    
  23 F23           -2.3829     4.1637    -0.3657 F       
  24 F24            2.3165     1.4867     0.5122 F       
  25 H25           -2.0760    -2.8280    -0.4245 H       
  26 H26            2.1413    -2.7576     0.3953 H       
  27 H27           -1.9536    -5.3047    -0.4429 H       
  28 H28            2.0509    -7.3044    -0.9627 H       
  29 H29            2.0688    -7.3073     0.8297 H       
  30 H30            1.0607   -10.7161     1.2054 H       
  31 H31            2.5637    -9.7632     1.1744 H       
  32 H32            1.1515    -9.1687     2.0803 H       
  33 H33            1.1102    -9.1434    -2.2023 H       
  34 H34            2.5395    -9.7483    -1.3310 H       
  35 H35            1.0361   -10.7011    -1.3442 H       
  36 H36            2.0365     4.0796     0.5002 H       
  37 H37           -0.0734     5.2794     0.1061 H       
  38 H38           -2.1269     1.5693    -0.3672 H       
@<TRIPOS>BOND
   1    1    2 1
   2    1   18 ar
   3    1   22 ar
   4    2    3 3
   5    3    4 1
   6    4    5 ar
   7    4    8 ar
   8    5    9 ar
   9    5   25 1
  10    6    7 ar
  11    6   10 1
  12    6    9 ar
  13    7    8 ar
  14    8   26 1
  15    9   27 1
  16   10   11 am
  17   10   14 1
  18   11   12 1
  19   11   17 2
  20   12   13 1
  21   13   14 1
  22   13   15 1
  23   13   16 1
  24   14   28 1
  25   14   29 1
  26   15   30 1
  27   15   31 1
  28   15   32 1
  29   16   33 1
  30   16   34 1
  31   16   35 1
  32   18   19 ar
  33   18   24 1
  34   19   20 ar
  35   19   36 1
  36   20   21 ar
  37   20   37 1
  38   21   22 ar
  39   21   23 1
  40   22   38 1

#	End of record

