#	Name: ASD01001218
#	Creating user name:	WinNT
#	Creation time:	15. 06. 2019 18:55

#	Modifying user name:	WinNT
#	Modification time:	15. 06. 2019 18:55

#	Program:	/corina/corina34_cracker 3.40 0067  02.08.2006

@<TRIPOS>MOLECULE
ASD01001218
  50   54    0    0    0
SMALL
NO_CHARGES


@<TRIPOS>ATOM
   1 C1            -0.5846     0.0532    -2.3062 C.ar    
   2 C2            -0.2757    -1.0537    -1.5484 C.ar    
   3 C3             1.0459    -1.2822    -1.1580 C.ar    
   4 C4             2.0496    -0.3747    -1.5441 C.ar    
   5 C5             1.7177     0.7351    -2.3078 C.ar    
   6 C6             0.4081     0.9451    -2.6851 C.ar    
   7 N7             3.2236    -0.8626    -1.0162 N.pl3   
   8 N8             1.6462    -2.2620    -0.4292 N.2     
   9 C9             2.9226    -2.0232    -0.3458 C.2     
  10 N10            3.9059    -2.7667     0.2920 N.pl3   
  11 C11            5.2147    -2.4600     0.0122 C.2     
  12 C12            5.5680    -1.3404    -0.6333 C.2     
  13 C13            4.5755    -0.3111    -1.1020 C.3     
  14 C14            6.2936    -3.4178     0.4477 C.3     
  15 C15            6.9420    -1.1146    -0.8863 C.2     
  16 N16            7.5649    -1.7876    -1.8740 N.am    
  17 O17            7.5616    -0.3121    -0.2116 O.2     
  18 C18            4.8759     0.0623    -2.5307 C.2     
  19 O19            4.8141    -0.7635    -3.5880 O.3     
  20 C20            5.1462    -0.0907    -4.7019 C.2     
  21 C21            5.4252     1.1808    -4.3631 C.2     
  22 C22            5.2458     1.2808    -2.9643 C.2     
  23 C23            8.8942    -1.4871    -2.1960 C.ar    
  24 C24            9.3186    -1.5426    -3.5170 C.ar    
  25 C25           10.6294    -1.2456    -3.8338 C.ar    
  26 C26           11.5222    -0.8919    -2.8328 C.ar    
  27 C27           11.0992    -0.8366    -1.5129 C.ar    
  28 C28            9.7872    -1.1277    -1.1952 C.ar    
  29 O29           12.8129    -0.5996    -3.1455 O.3     
  30 C30           13.6775    -0.2432    -2.0650 C.3     
  31 H31           -1.6060     0.2261    -2.6115 H       
  32 H32           -1.0534    -1.7437    -1.2561 H       
  33 H33            2.4847     1.4341    -2.6070 H       
  34 H34            0.1534     1.8099    -3.2797 H       
  35 H35            3.6771    -3.4763     0.9125 H       
  36 H36            4.6468     0.5756    -0.4721 H       
  37 H37            5.8403    -4.2695     0.9548 H       
  38 H38            6.8445    -3.7661    -0.4260 H       
  39 H39            6.9764    -2.9104     1.1292 H       
  40 H40            7.0923    -2.4802    -2.3618 H       
  41 H41            5.1832    -0.5010    -5.7002 H       
  42 H42            5.7252     1.9741    -5.0318 H       
  43 H43            5.3855     2.1643    -2.3590 H       
  44 H44            8.6237    -1.8183    -4.2965 H       
  45 H45           10.9597    -1.2891    -4.8612 H       
  46 H46           11.7949    -0.5615    -0.7340 H       
  47 H47            9.4579    -1.0843    -0.1675 H       
  48 H48           14.6752    -0.0352    -2.4515 H       
  49 H49           13.2887     0.6446    -1.5663 H       
  50 H50           13.7280    -1.0671    -1.3532 H       
@<TRIPOS>BOND
   1    1    2 ar
   2    1    6 ar
   3    1   31 1
   4    2    3 ar
   5    2   32 1
   6    3    4 ar
   7    3    8 1
   8    4    5 ar
   9    4    7 1
  10    5    6 ar
  11    5   33 1
  12    6   34 1
  13    7    9 1
  14    7   13 1
  15    8    9 2
  16    9   10 1
  17   10   11 1
  18   10   35 1
  19   11   12 2
  20   11   14 1
  21   12   15 1
  22   12   13 1
  23   13   18 1
  24   13   36 1
  25   14   37 1
  26   14   38 1
  27   14   39 1
  28   15   16 am
  29   15   17 2
  30   16   23 1
  31   16   40 1
  32   18   19 1
  33   18   22 2
  34   19   20 1
  35   20   21 2
  36   20   41 1
  37   21   22 1
  38   21   42 1
  39   22   43 1
  40   23   24 ar
  41   23   28 ar
  42   24   25 ar
  43   24   44 1
  44   25   26 ar
  45   25   45 1
  46   26   27 ar
  47   26   29 1
  48   27   28 ar
  49   27   46 1
  50   28   47 1
  51   29   30 1
  52   30   48 1
  53   30   49 1
  54   30   50 1

#	End of record

