#	Name: ASD01840241
#	Creating user name:	WinNT
#	Creation time:	15. 06. 2019 19:37

#	Modifying user name:	WinNT
#	Modification time:	15. 06. 2019 19:37

#	Program:	/corina/corina34_cracker 3.40 0067  02.08.2006

@<TRIPOS>MOLECULE
ASD01840241
  38   41    0    0    0
SMALL
NO_CHARGES


@<TRIPOS>ATOM
   1 C1            -2.0565     1.3087    -0.0830 C.3     
   2 C2            -1.4327    -0.0632    -0.0890 C.ar    
   3 C3            -1.3096    -0.7500    -1.2856 C.ar    
   4 C4            -0.7381    -2.0050    -1.2888 C.ar    
   5 C5            -0.5890    -2.7784    -2.5736 C.3     
   6 C6            -0.2955    -2.5500    -0.0656 C.ar    
   7 C7            -0.4532    -1.7989     1.0974 C.ar    
   8 N8            -1.0100    -0.5853     1.0395 N.ar    
   9 S9             0.1704    -2.6849     2.4815 S.3     
  10 C10            0.6413    -4.0612     1.4965 C.2     
  11 C11            1.2413    -5.3425     1.5977 C.2     
  12 N12            1.7007    -5.9404     2.7780 N.pl3   
  13 C13            2.3027    -7.2754     2.7367 C.3     
  14 C14            2.7102    -7.6859     4.1282 C.2     
  15 C15            3.9586    -7.4445     4.7463 C.2     
  16 C16            3.8923    -7.9772     5.9797 C.2     
  17 O17            2.6769    -8.5254     6.1404 O.3     
  18 C18            1.9539    -8.3474     5.0227 C.2     
  19 N19            1.2926    -5.8713     0.4032 N.2     
  20 N20            0.7383    -4.9746    -0.5143 N.pl3   
  21 C21            0.6059    -5.1886    -1.9575 C.3     
  22 C22            0.3361    -3.8493     0.1830 C.2     
  23 H23           -1.2819     2.0607    -0.2331 H       
  24 H24           -2.7903     1.3777    -0.8860 H       
  25 H25           -2.5484     1.4799     0.8745 H       
  26 H26           -1.6581    -0.3072    -2.2069 H       
  27 H27            0.4234    -2.6533    -2.9575 H       
  28 H28           -0.7784    -3.8352    -2.3856 H       
  29 H29           -1.3043    -2.4059    -3.3070 H       
  30 H30            1.6204    -5.4705     3.6228 H       
  31 H31            1.5777    -7.9888     2.3450 H       
  32 H32            3.1808    -7.2582     2.0911 H       
  33 H33            4.8035    -6.9313     4.3114 H       
  34 H34            4.6826    -7.9662     6.7157 H       
  35 H35            0.9385    -8.6808     4.8674 H       
  36 H36           -0.4029    -5.5348    -2.1824 H       
  37 H37            0.7940    -4.2520    -2.4824 H       
  38 H38            1.3279    -5.9381    -2.2815 H       
@<TRIPOS>BOND
   1    1    2 1
   2    1   23 1
   3    1   24 1
   4    1   25 1
   5    2    8 ar
   6    2    3 ar
   7    3    4 ar
   8    3   26 1
   9    4    5 1
  10    4    6 ar
  11    5   27 1
  12    5   28 1
  13    5   29 1
  14    6   22 1
  15    6    7 ar
  16    7    8 ar
  17    7    9 1
  18    9   10 1
  19   10   22 2
  20   10   11 1
  21   11   12 1
  22   11   19 2
  23   12   13 1
  24   12   30 1
  25   13   14 1
  26   13   31 1
  27   13   32 1
  28   14   18 2
  29   14   15 1
  30   15   16 2
  31   15   33 1
  32   16   17 1
  33   16   34 1
  34   17   18 1
  35   18   35 1
  36   19   20 1
  37   20   21 1
  38   20   22 1
  39   21   36 1
  40   21   37 1
  41   21   38 1

#	End of record

