#	Name: ASD03090840
#	Creating user name:	WinNT
#	Creation time:	15. 06. 2019 20:29

#	Modifying user name:	WinNT
#	Modification time:	15. 06. 2019 20:29

#	Program:	/corina/corina34_cracker 3.40 0067  02.08.2006

@<TRIPOS>MOLECULE
ASD03090840
  38   40    0    0    0
SMALL
NO_CHARGES


@<TRIPOS>ATOM
   1 C1            -0.0174     1.5259     0.1012 C.3     
   2 C2             0.0037    -0.0039     0.1151 C.3     
   3 S3             1.6841     2.1538     0.0625 S.o2    
   4 O4             2.3454     1.8779     1.2896 O.2     
   5 O5             2.2977     1.8547    -1.1838 O.2     
   6 N6             1.5164     3.8012     0.0503 N.am    
   7 S7             4.2780     4.0605    -0.0061 S.3     
   8 C8             2.5786     4.5675     0.0226 C.2     
   9 N9             2.6211     5.9370     0.0094 N.pl3   
  10 C10            3.8605     6.5094    -0.0200 C.2     
  11 C11            4.9169     5.7139    -0.0335 C.2     
  12 O12           -1.9825     9.0128     0.0778 O.3     
  13 C13           -3.1884     8.4015    -0.3931 C.3     
  14 C14           -3.2993     7.0077     0.2396 C.3     
  15 O15           -2.1537     6.2445    -0.1542 O.3     
  16 C16           -0.9443     6.8613    -0.0562 C.ar    
  17 C17           -0.8581     8.2444     0.0572 C.ar    
  18 C18            0.2113     6.0963    -0.0718 C.ar    
  19 C19            1.4523     6.7108     0.0248 C.ar    
  20 C20            1.5352     8.0919     0.1362 C.ar    
  21 C21            0.3834     8.8549     0.1518 C.ar    
  22 F22           -3.3325     7.1236     1.6334 F       
  23 F23           -4.4640     6.3766    -0.2100 F       
  24 F24           -4.2893     9.1789    -0.0179 F       
  25 F25           -3.1453     8.2849    -1.7866 F       
  26 C26            6.3656     6.1278    -0.0656 C.3     
  27 H27           -0.5532     1.8739    -0.7819 H       
  28 H28           -0.5189     1.8906     0.9977 H       
  29 H29           -1.0187    -0.3811     0.1384 H       
  30 H30            0.5052    -0.3685    -0.7813 H       
  31 H31            0.5396    -0.3518     0.9982 H       
  32 H32            3.9750     7.5832    -0.0323 H       
  33 H33            0.1463     5.0217    -0.1580 H       
  34 H34            2.5006     8.5704     0.2104 H       
  35 H35            0.4501     9.9294     0.2382 H       
  36 H36            6.9972     5.2395    -0.0704 H       
  37 H37            6.5562     6.7140    -0.9646 H       
  38 H38            6.5912     6.7293     0.8150 H       
@<TRIPOS>BOND
   1    1    2 1
   2    1    3 1
   3    1   27 1
   4    1   28 1
   5    2   29 1
   6    2   30 1
   7    2   31 1
   8    3    4 2
   9    3    5 2
  10    3    6 am
  11    6    8 2
  12    7    8 1
  13    7   11 1
  14    8    9 1
  15    9   10 1
  16    9   19 1
  17   10   11 2
  18   10   32 1
  19   11   26 1
  20   12   13 1
  21   12   17 1
  22   13   14 1
  23   13   24 1
  24   13   25 1
  25   14   15 1
  26   14   22 1
  27   14   23 1
  28   15   16 1
  29   16   17 ar
  30   16   18 ar
  31   17   21 ar
  32   18   19 ar
  33   18   33 1
  34   19   20 ar
  35   20   21 ar
  36   20   34 1
  37   21   35 1
  38   26   36 1
  39   26   37 1
  40   26   38 1

#	End of record

