#	Name: ASD01912920
#	Creating user name:	WinNT
#	Creation time:	15. 06. 2019 20:00

#	Modifying user name:	WinNT
#	Modification time:	15. 06. 2019 20:00

#	Program:	/corina/corina34_cracker 3.40 0067  02.08.2006

@<TRIPOS>MOLECULE
ASD01912920
  47   51    0    0    0
SMALL
NO_CHARGES


@<TRIPOS>ATOM
   1 C1            -0.1040     1.1808     0.6596 C.2     
   2 N2             0.0088     0.0103    -0.0454 N.pl3   
   3 C3            -1.1056    -0.4864    -0.7049 C.2     
   4 C4            -2.2701     0.1480    -0.6646 C.2     
   5 N5            -2.4359     1.3307     0.0312 N.am    
   6 C6            -1.3943     1.8706     0.7029 C.2     
   7 C7             1.1390     1.4380     1.2070 C.2     
   8 C8             1.9474     0.3819     0.7895 C.2     
   9 N9             1.2161    -0.4223     0.0548 N.2     
  10 O10           -1.5239     2.9118     1.3212 O.2     
  11 C11           -3.6811     1.9650     0.0452 C.ar    
  12 C12            3.4051     0.1965     1.1235 C.3     
  13 O13            3.8472     1.2791     1.9447 O.3     
  14 C14            5.1480     1.2642     2.3379 C.ar    
  15 C15            5.6443     2.2843     3.1364 C.ar    
  16 C16            6.9670     2.2668     3.5346 C.ar    
  17 C17            7.7960     1.2337     3.1381 C.ar    
  18 C18            7.3039     0.2161     2.3418 C.ar    
  19 C19            5.9804     0.2258     1.9460 C.ar    
  20 C20           -3.9847     2.8913    -0.9287 C.ar    
  21 C21           -5.2359     3.5278    -0.9144 C.ar    
  22 C22           -6.1649     3.2028     0.1061 C.ar    
  23 C23           -5.8241     2.2546     1.0850 C.ar    
  24 C24           -4.6081     1.6477     1.0452 C.ar    
  25 C25           -7.4177     3.8434     0.1162 C.ar    
  26 N26           -5.5595     4.4316    -1.8457 N.ar    
  27 C27           -6.7260     5.0302    -1.8383 C.ar    
  28 C28           -7.6838     4.7562    -0.8650 C.ar    
  29 C29           -7.0389     6.0407    -2.9117 C.3     
  30 H30           -1.0238    -1.4078    -1.2624 H       
  31 H31           -3.1139    -0.2722    -1.1918 H       
  32 H32            1.4229     2.2771     1.8249 H       
  33 H33            3.5385    -0.7436     1.6588 H       
  34 H34            3.9890     0.1766     0.2032 H       
  35 H35            4.9973     3.0917     3.4461 H       
  36 H36            7.3539     3.0609     4.1560 H       
  37 H37            8.8298     1.2219     3.4504 H       
  38 H38            7.9536    -0.5894     2.0328 H       
  39 H39            5.5964    -0.5694     1.3241 H       
  40 H40           -3.2643     3.1265    -1.6982 H       
  41 H41           -6.5287     2.0040     1.8642 H       
  42 H42           -4.3505     0.9191     1.7997 H       
  43 H43           -8.1492     3.6194     0.8785 H       
  44 H44           -8.6358     5.2659    -0.8851 H       
  45 H45           -7.5014     5.5374    -3.7607 H       
  46 H46           -7.7243     6.7903    -2.5162 H       
  47 H47           -6.1173     6.5251    -3.2344 H       
@<TRIPOS>BOND
   1    1    2 1
   2    1    7 2
   3    1    6 1
   4    2    3 1
   5    2    9 1
   6    3    4 2
   7    3   30 1
   8    4    5 1
   9    4   31 1
  10    5    6 am
  11    5   11 1
  12    6   10 2
  13    7    8 1
  14    7   32 1
  15    8    9 2
  16    8   12 1
  17   11   20 ar
  18   11   24 ar
  19   12   13 1
  20   12   33 1
  21   12   34 1
  22   13   14 1
  23   14   15 ar
  24   14   19 ar
  25   15   16 ar
  26   15   35 1
  27   16   17 ar
  28   16   36 1
  29   17   18 ar
  30   17   37 1
  31   18   19 ar
  32   18   38 1
  33   19   39 1
  34   20   21 ar
  35   20   40 1
  36   21   22 ar
  37   21   26 ar
  38   22   23 ar
  39   22   25 ar
  40   23   24 ar
  41   23   41 1
  42   24   42 1
  43   25   28 ar
  44   25   43 1
  45   26   27 ar
  46   27   28 ar
  47   27   29 1
  48   28   44 1
  49   29   45 1
  50   29   46 1
  51   29   47 1

#	End of record

