#	Name: ASD00311023
#	Creating user name:	WinNT
#	Creation time:	15. 06. 2019 18:34

#	Modifying user name:	WinNT
#	Modification time:	15. 06. 2019 18:34

#	Program:	/corina/corina34_cracker 3.40 0067  02.08.2006

@<TRIPOS>MOLECULE
ASD00311023
  37   39    0    0    0
SMALL
NO_CHARGES


@<TRIPOS>ATOM
   1 C1            -0.0167     1.3797     0.0096 C.ar    
   2 C2             0.0021    -0.0041     0.0020 C.ar    
   3 C3             1.2062    -0.6860    -0.0127 C.ar    
   4 C4             2.3967     0.0105    -0.0199 C.ar    
   5 C5             2.3851     1.4069    -0.0128 C.ar    
   6 C6             1.1664     2.0886     0.0021 C.ar    
   7 C7             3.6414     3.6257    -0.0124 C.2     
   8 C8             3.6574     2.1602    -0.0200 C.2     
   9 C9             6.0024     6.4850    -0.0184 C.ar    
  10 C10            4.7856     5.7861    -0.0114 C.ar    
  11 C11            4.8017     4.3127    -0.0190 C.2     
  12 C12            5.9992     7.8555    -0.0110 C.ar    
  13 C13            4.7511     8.5207     0.0036 C.ar    
  14 C14            3.5593     7.7524     0.0100 C.ar    
  15 N15            3.6241     6.4197     0.0023 N.ar    
  16 O16            4.7177     1.5634    -0.0321 O.2     
  17 C17            2.3184     8.4160     0.0246 C.ar    
  18 C18            2.2805     9.7764     0.0322 C.ar    
  19 C19            3.4535    10.5278     0.0254 C.ar    
  20 C20            4.6732     9.9200     0.0122 C.ar    
  21 C21           -1.2947    -0.7718     0.0103 C.3     
  22 O22            7.1611     8.5548    -0.0171 O.3     
  23 H23           -0.9599     1.9057     0.0170 H       
  24 H24            1.2137    -1.7659    -0.0182 H       
  25 H25            3.3357    -0.5229    -0.0307 H       
  26 H26            1.1504     3.1685     0.0074 H       
  27 H27            2.7003     4.1554    -0.0016 H       
  28 H28            6.9377     5.9451    -0.0250 H       
  29 H29            5.7428     3.7830    -0.0298 H       
  30 H30            1.3999     7.8480     0.0293 H       
  31 H31            1.3259    10.2814     0.0434 H       
  32 H32            3.3955    11.6062     0.0310 H       
  33 H33            5.5753    10.5138     0.0073 H       
  34 H34           -1.6171    -0.9514    -1.0153 H       
  35 H35           -1.1490    -1.7255     0.5177 H       
  36 H36           -2.0557    -0.1939     0.5346 H       
  37 H37            7.4906     8.7624    -0.9022 H       
@<TRIPOS>BOND
   1    1    2 ar
   2    1    6 ar
   3    1   23 1
   4    2    3 ar
   5    2   21 1
   6    3    4 ar
   7    3   24 1
   8    4    5 ar
   9    4   25 1
  10    5    6 ar
  11    5    8 1
  12    6   26 1
  13    7    8 1
  14    7   11 2
  15    7   27 1
  16    8   16 2
  17    9   10 ar
  18    9   12 ar
  19    9   28 1
  20   10   11 1
  21   10   15 ar
  22   11   29 1
  23   12   13 ar
  24   12   22 1
  25   13   14 ar
  26   13   20 ar
  27   14   15 ar
  28   14   17 ar
  29   17   18 ar
  30   17   30 1
  31   18   19 ar
  32   18   31 1
  33   19   20 ar
  34   19   32 1
  35   20   33 1
  36   21   34 1
  37   21   35 1
  38   21   36 1
  39   22   37 1

#	End of record

