#	Name: ASD03430057
#	Creating user name:	WinNT
#	Creation time:	15. 06. 2019 20:40

#	Modifying user name:	WinNT
#	Modification time:	15. 06. 2019 20:40

#	Program:	/corina/corina34_cracker 3.40 0067  02.08.2006

@<TRIPOS>MOLECULE
ASD03430057
  53   58    0    0    0
SMALL
NO_CHARGES


@<TRIPOS>ATOM
   1 C1             1.8820     1.2926    -1.0479 C.ar    
   2 C2             1.3081     0.0593    -0.7806 C.ar    
   3 C3             2.0956    -1.0027    -0.3890 C.ar    
   4 C4             3.4716    -0.8498    -0.2476 C.ar    
   5 C5             4.0450     0.3879    -0.5211 C.ar    
   6 C6             3.2565     1.4548    -0.9179 C.ar    
   7 O7             4.0566    -2.0076     0.1737 O.3     
   8 C8             1.7868    -2.4376    -0.0554 C.3     
   9 C9             3.1662    -3.1106    -0.0819 C.3     
  10 C10           -0.0852    -3.2355     1.0300 C.ar    
  11 C11            1.1186    -2.5827     1.2794 C.ar    
  12 C12            0.8433    -3.0622    -1.0427 C.2     
  13 N13           -0.2162    -3.5023    -0.3351 N.am    
  14 O14            1.0031    -3.1526    -2.2416 O.2     
  15 C15            1.4648    -2.2150     2.5655 C.ar    
  16 C16            0.6083    -2.4981     3.6220 C.ar    
  17 C17           -0.5875    -3.1468     3.3809 C.ar    
  18 C18           -0.9360    -3.5140     2.0971 C.ar    
  19 C19           -1.3708    -4.1813    -0.9284 C.3     
  20 O20            1.0905     2.3287    -1.4405 O.3     
  21 C21            1.6537     3.6414    -1.3428 C.3     
  22 C22            3.0720     3.5999    -1.9277 C.3     
  23 O23            3.8412     2.6576    -1.1735 O.3     
  24 O24            2.6422    -1.5774     2.7968 O.3     
  25 C25            2.9922    -1.3320     4.0867 C.ar    
  26 C26            3.7137    -2.2757     4.8014 C.ar    
  27 C27            4.0696    -2.0220     6.1172 C.ar    
  28 C28            2.9883     0.1165     5.9993 C.ar    
  29 C29            2.6325    -0.1337     4.6881 C.ar    
  30 C30            3.7031    -0.8249     6.7155 C.ar    
  31 O31            4.7765    -2.9453     6.8206 O.3     
  32 C32            5.1087    -2.6170     8.1711 C.3     
  33 H33            0.2404    -0.0700    -0.8790 H       
  34 H34            5.1126     0.5177    -0.4226 H       
  35 H35            3.3641    -3.5492    -1.0599 H       
  36 H36            3.2454    -3.8620     0.7038 H       
  37 H37            0.8764    -2.2124     4.6284 H       
  38 H38           -1.2536    -3.3675     4.2019 H       
  39 H39           -1.8733    -4.0200     1.9188 H       
  40 H40           -2.1222    -3.4430    -1.2082 H       
  41 H41           -1.0533    -4.7304    -1.8149 H       
  42 H42           -1.7958    -4.8758    -0.2037 H       
  43 H43            1.0436     4.3463    -1.9076 H       
  44 H44            1.6960     3.9464    -0.2972 H       
  45 H45            3.0303     3.2875    -2.9711 H       
  46 H46            3.5278     4.5875    -1.8570 H       
  47 H47            3.9978    -3.2070     4.3342 H       
  48 H48            2.7079     1.0496     6.4654 H       
  49 H49            2.0742     0.6038     4.1304 H       
  50 H50            3.9798    -0.6270     7.7405 H       
  51 H51            5.7141    -1.7107     8.1864 H       
  52 H52            4.1939    -2.4524     8.7406 H       
  53 H53            5.6713    -3.4374     8.6166 H       
@<TRIPOS>BOND
   1    1    2 ar
   2    1    6 ar
   3    1   20 1
   4    2    3 ar
   5    2   33 1
   6    3    4 ar
   7    3    8 1
   8    4    5 ar
   9    4    7 1
  10    5    6 ar
  11    5   34 1
  12    6   23 1
  13    7    9 1
  14    8    9 1
  15    8   11 1
  16    8   12 1
  17    9   35 1
  18    9   36 1
  19   10   11 ar
  20   10   13 1
  21   10   18 ar
  22   11   15 ar
  23   12   13 am
  24   12   14 2
  25   13   19 1
  26   15   16 ar
  27   15   24 1
  28   16   17 ar
  29   16   37 1
  30   17   18 ar
  31   17   38 1
  32   18   39 1
  33   19   40 1
  34   19   41 1
  35   19   42 1
  36   20   21 1
  37   21   22 1
  38   21   43 1
  39   21   44 1
  40   22   23 1
  41   22   45 1
  42   22   46 1
  43   24   25 1
  44   25   26 ar
  45   25   29 ar
  46   26   27 ar
  47   26   47 1
  48   27   30 ar
  49   27   31 1
  50   28   29 ar
  51   28   30 ar
  52   28   48 1
  53   29   49 1
  54   30   50 1
  55   31   32 1
  56   32   51 1
  57   32   52 1
  58   32   53 1

#	End of record

