#	Name: ASD04591155
#	Creating user name:	WinNT
#	Creation time:	15. 06. 2019 20:52

#	Modifying user name:	WinNT
#	Modification time:	15. 06. 2019 20:52

#	Program:	/corina/corina34_cracker 3.40 0067  02.08.2006

@<TRIPOS>MOLECULE
ASD04591155
  65   70    0    0    0
SMALL
NO_CHARGES


@<TRIPOS>ATOM
   1 N1            -0.0170     1.3232    -0.0112 N.ar    
   2 C2             0.0017    -0.0035    -0.0049 C.ar    
   3 N3             1.1299    -0.6949    -0.0117 N.ar    
   4 C4             2.3050    -0.0729    -0.0259 C.ar    
   5 C5             2.3189     1.3365    -0.0334 C.ar    
   6 C6             1.1072     2.0202    -0.0253 C.ar    
   7 N7             3.6031    -0.5196    -0.0356 N.pl3   
   8 C8             4.4823     0.5495    -0.0493 C.ar    
   9 C9             3.7312     1.7384    -0.0486 C.ar    
  10 C10            5.8681     0.6418    -0.0623 C.ar    
  11 N11            6.4613     1.8180    -0.0731 N.ar    
  12 C12            5.7851     2.9532    -0.0727 C.ar    
  13 C13            4.4064     2.9584    -0.0612 C.ar    
  14 N14           -1.2019    -0.6887     0.0098 N.pl3   
  15 C15           -2.4021     0.0122     0.1304 C.ar    
  16 C16            4.0018    -1.9293    -0.0315 C.3     
  17 N17           -2.3872     1.3236     0.3315 N.ar    
  18 C18           -3.5235     1.9874     0.4452 C.ar    
  19 C19           -4.7355     1.3117     0.3541 C.ar    
  20 N20           -4.7503     0.0000     0.1529 N.ar    
  21 C21           -3.6138    -0.6627     0.0340 C.ar    
  22 N22           -5.9340     2.0116     0.4745 N.3     
  23 C23            3.4004    -2.6449     1.1957 C.3     
  24 C24            3.4384    -2.6400    -1.2746 C.3     
  25 C25            2.5144    -3.7627    -0.7594 C.3     
  26 C26            2.1010    -3.2941     0.6579 C.3     
  27 C27           -7.2634     3.9380    -0.2480 C.3     
  28 C28           -6.0058     3.1044    -0.5038 C.3     
  29 C29           -7.0854     1.1091     0.3478 C.3     
  30 C30           -8.3753     1.8831     0.6290 C.3     
  31 C31           -8.4979     3.0400    -0.3665 C.3     
  32 N32           -9.7045     3.8217    -0.0646 N.3     
  33 C33           -9.8540     4.9425    -1.0024 C.3     
  34 C34          -10.8999     2.9680    -0.0697 C.3     
  35 H35            1.0849     3.0999    -0.0311 H       
  36 H36            6.4645    -0.2586    -0.0631 H       
  37 H37            6.3204     3.8911    -0.0819 H       
  38 H38            3.8597     3.8898    -0.0610 H       
  39 H39           -1.2103    -1.6559    -0.0636 H       
  40 H40            5.0887    -2.0096    -0.0159 H       
  41 H41           -3.5113     3.0548     0.6093 H       
  42 H42           -3.6258    -1.7301    -0.1301 H       
  43 H43            4.0843    -3.4093     1.5647 H       
  44 H44            3.1704    -1.9258     1.9819 H       
  45 H45            2.8684    -1.9360    -1.8809 H       
  46 H46            4.2519    -3.0660    -1.8618 H       
  47 H47            1.6378    -3.8594    -1.4000 H       
  48 H48            3.0552    -4.7076    -0.7062 H       
  49 H49            1.8091    -4.1433     1.2757 H       
  50 H50            1.2967    -2.5605     0.6029 H       
  51 H51           -7.2192     4.3655     0.7537 H       
  52 H52           -7.3245     4.7397    -0.9840 H       
  53 H53           -5.1241     3.7378    -0.4060 H       
  54 H54           -6.0442     2.6886    -1.5106 H       
  55 H55           -7.1188     0.7026    -0.6630 H       
  56 H56           -6.9880     0.2933     1.0641 H       
  57 H57           -9.2309     1.2167     0.5196 H       
  58 H58           -8.3486     2.2782     1.6446 H       
  59 H59           -8.5639     2.6433    -1.3796 H       
  60 H60           -9.9323     4.5575    -2.0191 H       
  61 H61          -10.7549     5.5045    -0.7563 H       
  62 H62           -8.9856     5.5971    -0.9277 H       
  63 H63          -10.7919     2.1871     0.6831 H       
  64 H64          -11.7786     3.5718     0.1567 H       
  65 H65          -11.0161     2.5115    -1.0527 H       
@<TRIPOS>BOND
   1    1    2 ar
   2    1    6 ar
   3    2    3 ar
   4    2   14 1
   5    3    4 ar
   6    4    5 ar
   7    4    7 1
   8    5    6 ar
   9    5    9 1
  10    6   35 1
  11    7    8 1
  12    7   16 1
  13    8    9 ar
  14    8   10 ar
  15    9   13 ar
  16   10   11 ar
  17   10   36 1
  18   11   12 ar
  19   12   13 ar
  20   12   37 1
  21   13   38 1
  22   14   15 1
  23   14   39 1
  24   15   17 ar
  25   15   21 ar
  26   16   24 1
  27   16   23 1
  28   16   40 1
  29   17   18 ar
  30   18   19 ar
  31   18   41 1
  32   19   20 ar
  33   19   22 1
  34   20   21 ar
  35   21   42 1
  36   22   29 1
  37   22   28 1
  38   23   26 1
  39   23   43 1
  40   23   44 1
  41   24   25 1
  42   24   45 1
  43   24   46 1
  44   25   26 1
  45   25   47 1
  46   25   48 1
  47   26   49 1
  48   26   50 1
  49   27   28 1
  50   27   31 1
  51   27   51 1
  52   27   52 1
  53   28   53 1
  54   28   54 1
  55   29   30 1
  56   29   55 1
  57   29   56 1
  58   30   31 1
  59   30   57 1
  60   30   58 1
  61   31   32 1
  62   31   59 1
  63   32   33 1
  64   32   34 1
  65   33   60 1
  66   33   61 1
  67   33   62 1
  68   34   63 1
  69   34   64 1
  70   34   65 1

#	End of record

