#	Name: ASD01209247
#	Creating user name:	WinNT
#	Creation time:	15. 06. 2019 19:11

#	Modifying user name:	WinNT
#	Modification time:	15. 06. 2019 19:11

#	Program:	/corina/corina34_cracker 3.40 0067  02.08.2006

@<TRIPOS>MOLECULE
ASD01209247
  77   79    0    0    0
SMALL
NO_CHARGES


@<TRIPOS>ATOM
   1 C1             0.8234     0.9528     1.3936 C.ar    
   2 C2             1.0406    -0.4094     1.3345 C.ar    
   3 C3             2.2824    -0.9010     0.9620 C.ar    
   4 C4             3.3177    -0.0108     0.6452 C.ar    
   5 C5             3.0892     1.3657     0.7076 C.ar    
   6 C6             1.8452     1.8406     1.0809 C.ar    
   7 O7             2.4950    -2.2402     0.9046 O.3     
   8 C8             1.4520    -3.0643     1.1865 C.ar    
   9 C9             0.4619    -3.2812     0.2388 C.ar    
  10 C10           -0.5971    -4.1199     0.5277 C.ar    
  11 C11           -0.6710    -4.7428     1.7599 C.ar    
  12 C12            1.3782    -3.6948     2.4203 C.ar    
  13 C13            0.3141    -4.5280     2.7062 C.ar    
  14 S14           -2.0232    -5.8119     2.1252 S.o2    
  15 O15           -2.1340    -5.7655     3.5411 O.2     
  16 O16           -3.0750    -5.3438     1.2922 O.2     
  17 C17           -1.4637    -7.4504     1.5838 C.3     
  18 C18            4.6421    -0.5251     0.2483 C.2     
  19 O19            4.8379    -1.7242     0.1953 O.2     
  20 N20            5.6352     0.3339    -0.0556 N.am    
  21 C21            6.8930    -0.1545    -0.4325 C.2     
  22 N22            7.9383     0.5721    -0.7510 N.2     
  23 N23            8.9932    -0.2944    -1.0650 N.pl3   
  24 C24            8.5494    -1.5614    -0.9253 C.2     
  25 C25            7.2574    -1.5072    -0.5296 C.2     
  26 C26            9.3531    -2.8141    -1.1618 C.3     
  27 C27           10.3420     0.1048    -1.4742 C.3     
  28 P28           11.3984     0.2781     0.0014 P.3     
  29 O29           10.7671     1.2204     0.9522 O.2     
  30 O30            1.6215     3.1806     1.1420 O.3     
  31 C31            0.2911     3.6028     1.4480 C.3     
  32 C32            0.0664     5.0151     0.9040 C.3     
  33 O33            0.9213     5.9316     1.5905 O.3     
  34 C34            0.7895     7.2864     1.1556 C.3     
  35 C35            0.0923     3.6031     2.9651 C.3     
  36 O36           11.5750    -1.1583     0.7068 O.3     
  37 C37           12.2463    -2.8185     2.3296 C.3     
  38 C38           12.2632    -1.3374     1.9462 C.3     
  39 O39           12.8416     0.8427    -0.4351 O.3     
  40 C40           15.0980     1.6864    -0.2412 C.3     
  41 C41           13.8604     1.1858     0.5063 C.3     
  42 H42           -0.1471     1.3301     1.6801 H       
  43 H43            0.2416    -1.0935     1.5793 H       
  44 H44            3.8823     2.0575     0.4653 H       
  45 H45            0.5190    -2.7946    -0.7236 H       
  46 H46           -1.3682    -4.2888    -0.2094 H       
  47 H47            2.1496    -3.5308     3.1581 H       
  48 H48            0.2536    -5.0153     3.6681 H       
  49 H49           -0.5652    -7.7279     2.1349 H       
  50 H50           -2.2477    -8.1833     1.7744 H       
  51 H51           -1.2422    -7.4245     0.5169 H       
  52 H52            5.4791     1.2903    -0.0133 H       
  53 H53            6.6172    -2.3540    -0.3307 H       
  54 H54            9.8435    -3.1116    -0.2349 H       
  55 H55            8.6908    -3.6131    -1.4951 H       
  56 H56           10.1062    -2.6237    -1.9264 H       
  57 H57           10.7613    -0.6548    -2.1340 H       
  58 H58           10.2947     1.0578    -2.0012 H       
  59 H59           -0.4221     2.9186     0.9883 H       
  60 H60            0.2942     5.0344    -0.1618 H       
  61 H61           -0.9735     5.3028     1.0585 H       
  62 H62            1.0324     7.3529     0.0951 H       
  63 H63           -0.2354     7.6213     1.3154 H       
  64 H64            1.4712     7.9186     1.7247 H       
  65 H65           -0.9225     3.9252     3.1985 H       
  66 H66            0.2523     2.5970     3.3527 H       
  67 H67            0.8055     4.2873     3.4248 H       
  68 H68           12.7712    -2.9551     3.2751 H       
  69 H69           11.2148    -3.1548     2.4349 H       
  70 H70           12.7407    -3.4007     1.5521 H       
  71 H71           13.2947    -1.0011     1.8410 H       
  72 H72           11.7688    -0.7551     2.7238 H       
  73 H73           15.4645     0.9020    -0.9034 H       
  74 H74           14.8360     2.5657    -0.8296 H       
  75 H75           15.8751     1.9481     0.4770 H       
  76 H76           13.4939     1.9701     1.1686 H       
  77 H77           14.1224     0.3064     1.0948 H       
@<TRIPOS>BOND
   1    1    2 ar
   2    1    6 ar
   3    1   42 1
   4    2    3 ar
   5    2   43 1
   6    3    4 ar
   7    3    7 1
   8    4    5 ar
   9    4   18 1
  10    5    6 ar
  11    5   44 1
  12    6   30 1
  13    7    8 1
  14    8    9 ar
  15    8   12 ar
  16    9   10 ar
  17    9   45 1
  18   10   11 ar
  19   10   46 1
  20   11   13 ar
  21   11   14 1
  22   12   13 ar
  23   12   47 1
  24   13   48 1
  25   14   15 2
  26   14   16 2
  27   14   17 1
  28   17   49 1
  29   17   50 1
  30   17   51 1
  31   18   19 2
  32   18   20 am
  33   20   21 1
  34   20   52 1
  35   21   22 2
  36   21   25 1
  37   22   23 1
  38   23   24 1
  39   23   27 1
  40   24   25 2
  41   24   26 1
  42   25   53 1
  43   26   54 1
  44   26   55 1
  45   26   56 1
  46   27   28 1
  47   27   57 1
  48   27   58 1
  49   28   29 2
  50   28   36 1
  51   28   39 1
  52   30   31 1
  53   31   32 1
  54   31   35 1
  55   31   59 1
  56   32   33 1
  57   32   60 1
  58   32   61 1
  59   33   34 1
  60   34   62 1
  61   34   63 1
  62   34   64 1
  63   35   65 1
  64   35   66 1
  65   35   67 1
  66   36   38 1
  67   37   38 1
  68   37   68 1
  69   37   69 1
  70   37   70 1
  71   38   71 1
  72   38   72 1
  73   39   41 1
  74   40   41 1
  75   40   73 1
  76   40   74 1
  77   40   75 1
  78   41   76 1
  79   41   77 1

#	End of record

