#	Name: ASD01914476
#	Creating user name:	WinNT
#	Creation time:	15. 06. 2019 20:03

#	Modifying user name:	WinNT
#	Modification time:	15. 06. 2019 20:03

#	Program:	/corina/corina34_cracker 3.40 0067  02.08.2006

@<TRIPOS>MOLECULE
ASD01914476
  56   60    0    0    0
SMALL
NO_CHARGES


@<TRIPOS>ATOM
   1 C1            -0.0187     1.5258     0.0104 C.3     
   2 C2             0.0021    -0.0041     0.0020 C.3     
   3 C3             0.7182    -0.4975    -1.2568 C.3     
   4 C4            -0.0218     0.0093    -2.4963 C.3     
   5 C5            -0.0425     1.5392    -2.4879 C.3     
   6 C6             1.3929     2.0688    -2.4988 C.3     
   7 C7             2.1328     1.5619    -1.2592 C.3     
   8 C8             1.4167     2.0553    -0.0004 C.3     
   9 C9             2.1536     0.0321    -1.2676 C.3     
  10 C10           -0.7587     2.0326    -1.2291 C.3     
  11 C11           -0.8434     3.3203     1.4375 C.2     
  12 C12           -1.5355     3.7972     2.6540 C.ar    
  13 C13           -1.6801     5.1636     2.8847 C.ar    
  14 C14           -2.3342     5.6045     4.0336 C.ar    
  15 C15           -2.8402     4.6745     4.9458 C.ar    
  16 C16           -2.6933     3.3222     4.7106 C.ar    
  17 C17           -2.0508     2.8788     3.5714 C.ar    
  18 O18           -0.3999     4.1207     0.6374 O.2     
  19 N19           -0.7044     1.9982     1.2158 N.am    
  20 C20           -2.4869     7.0070     4.2790 C.1     
  21 N21           -2.6081     8.1196     4.4737 N.1     
  22 C22            1.3211    -2.6228    -2.2848 C.2     
  23 C23            1.3411    -4.1012    -2.2930 C.ar    
  24 C24            1.9434    -4.7855    -3.3467 C.ar    
  25 C25            1.9583    -6.1790    -3.3462 C.ar    
  26 C26            1.3698    -6.8804    -2.2904 C.ar    
  27 C27            0.7749    -6.1957    -1.2497 C.ar    
  28 C28            0.7615    -4.8148    -1.2416 C.ar    
  29 O29            1.8304    -2.0030    -3.1981 O.2     
  30 N30            0.7381    -1.9623    -1.2648 N.am    
  31 C31            2.5747    -6.8905    -4.4253 C.1     
  32 N32            3.0637    -7.4550    -5.2814 N.1     
  33 H33            0.5293    -0.3651     0.8851 H       
  34 H34           -1.0205    -0.3814     0.0098 H       
  35 H35            0.4884    -0.3422    -3.3931 H       
  36 H36           -1.0444    -0.3679    -2.4886 H       
  37 H37           -0.5697     1.9003    -3.3710 H       
  38 H38            1.9030     1.7172    -3.3956 H       
  39 H39            1.3781     3.1587    -2.4928 H       
  40 H40            3.1554     1.9392    -1.2670 H       
  41 H41            1.4019     3.1452     0.0056 H       
  42 H42            1.9439     1.6943     0.8826 H       
  43 H43            2.6808    -0.3290    -0.3846 H       
  44 H44            2.6638    -0.3194    -2.1644 H       
  45 H45           -1.7813     1.6553    -1.2214 H       
  46 H46           -0.7734     3.1225    -1.2231 H       
  47 H47           -1.2868     5.8779     2.1765 H       
  48 H48           -3.3471     5.0146     5.8368 H       
  49 H49           -3.0862     2.6077     5.4188 H       
  50 H50           -1.9432     1.8194     3.3914 H       
  51 H51           -1.0583     1.3595     1.8542 H       
  52 H52            2.3964    -4.2384    -4.1603 H       
  53 H53            1.3802    -7.9603    -2.2887 H       
  54 H54            0.3215    -6.7424    -0.4361 H       
  55 H55            0.2983    -4.2853    -0.4221 H       
  56 H56            0.3316    -2.4569    -0.5361 H       
@<TRIPOS>BOND
   1    1    2 1
   2    1    8 1
   3    1   10 1
   4    1   19 1
   5    2    3 1
   6    2   33 1
   7    2   34 1
   8    3    4 1
   9    3    9 1
  10    3   30 1
  11    4    5 1
  12    4   35 1
  13    4   36 1
  14    5    6 1
  15    5   10 1
  16    5   37 1
  17    6    7 1
  18    6   38 1
  19    6   39 1
  20    7    8 1
  21    7    9 1
  22    7   40 1
  23    8   41 1
  24    8   42 1
  25    9   43 1
  26    9   44 1
  27   10   45 1
  28   10   46 1
  29   11   12 1
  30   11   18 2
  31   11   19 am
  32   12   13 ar
  33   12   17 ar
  34   13   14 ar
  35   13   47 1
  36   14   15 ar
  37   14   20 1
  38   15   16 ar
  39   15   48 1
  40   16   17 ar
  41   16   49 1
  42   17   50 1
  43   19   51 1
  44   20   21 3
  45   22   23 1
  46   22   29 2
  47   22   30 am
  48   23   24 ar
  49   23   28 ar
  50   24   25 ar
  51   24   52 1
  52   25   26 ar
  53   25   31 1
  54   26   27 ar
  55   26   53 1
  56   27   28 ar
  57   27   54 1
  58   28   55 1
  59   30   56 1
  60   31   32 3

#	End of record

