#	Name: ASD00170097
#	Creating user name:	WinNT
#	Creation time:	15. 06. 2019 18:31

#	Modifying user name:	WinNT
#	Modification time:	15. 06. 2019 18:31

#	Program:	/corina/corina34_cracker 3.40 0067  02.08.2006

@<TRIPOS>MOLECULE
ASD00170097
  43   46    0    0    0
SMALL
NO_CHARGES


@<TRIPOS>ATOM
   1 C1             0.0020     1.3496    -0.0677 C.2     
   2 C2             0.0217     0.0146     0.2011 C.2     
   3 C3            -1.3119    -0.5536     0.2780 C.2     
   4 C4            -2.3022     0.3756     0.0637 C.2     
   5 S5            -1.6489     1.9222    -0.2221 S.3     
   6 N6            -3.6506     0.0928     0.0824 N.pl3   
   7 C7             1.2018     2.1973    -0.2037 C.ar    
   8 C8             2.2677     1.7817    -1.0056 C.ar    
   9 C9             3.3860     2.5796    -1.1285 C.ar    
  10 C10            3.4539     3.7890    -0.4595 C.ar    
  11 C11            2.4020     4.2072     0.3365 C.ar    
  12 C12            1.2751     3.4224     0.4642 C.ar    
  13 C13           -1.5742    -1.9649     0.5535 C.2     
  14 O14           -1.7440    -2.7437    -0.3672 O.2     
  15 C15            1.2628    -0.7686     0.3927 C.ar    
  16 C16            2.0751    -0.5334     1.5026 C.ar    
  17 C17            3.2308    -1.2664     1.6759 C.ar    
  18 C18            3.5855    -2.2338     0.7509 C.ar    
  19 C19            2.7833    -2.4716    -0.3525 C.ar    
  20 C20            1.6221    -1.7491    -0.5329 C.ar    
  21 C21           -1.6334    -2.4473     1.9508 C.ar    
  22 Cl22           5.0419    -3.1517     0.9749 Cl      
  23 C23           -1.7723    -3.8104     2.2164 C.ar    
  24 C24           -1.8269    -4.2537     3.5216 C.ar    
  25 C25           -1.7448    -3.3501     4.5663 C.ar    
  26 C26           -1.6071    -1.9975     4.3098 C.ar    
  27 C27           -1.5449    -1.5417     3.0092 C.ar    
  28 H28           -3.9567    -0.7944     0.3273 H       
  29 H29           -4.2937     0.7810    -0.1494 H       
  30 H30            2.2163     0.8376    -1.5278 H       
  31 H31            4.2107     2.2595    -1.7480 H       
  32 H32            4.3323     4.4095    -0.5588 H       
  33 H33            2.4621     5.1521     0.8560 H       
  34 H34            0.4549     3.7499     1.0858 H       
  35 H35            1.7998     0.2214     2.2244 H       
  36 H36            3.8603    -1.0852     2.5346 H       
  37 H37            3.0649    -3.2274    -1.0707 H       
  38 H38            0.9970    -1.9356    -1.3937 H       
  39 H39           -1.8372    -4.5166     1.4019 H       
  40 H40           -1.9344    -5.3082     3.7285 H       
  41 H41           -1.7888    -3.7022     5.5864 H       
  42 H42           -1.5435    -1.2973     5.1297 H       
  43 H43           -1.4374    -0.4857     2.8103 H       
@<TRIPOS>BOND
   1    1    2 2
   2    1    7 1
   3    1    5 1
   4    2    3 1
   5    2   15 1
   6    3    4 2
   7    3   13 1
   8    4    5 1
   9    4    6 1
  10    6   28 1
  11    6   29 1
  12    7    8 ar
  13    7   12 ar
  14    8    9 ar
  15    8   30 1
  16    9   10 ar
  17    9   31 1
  18   10   11 ar
  19   10   32 1
  20   11   12 ar
  21   11   33 1
  22   12   34 1
  23   13   14 2
  24   13   21 1
  25   15   16 ar
  26   15   20 ar
  27   16   17 ar
  28   16   35 1
  29   17   18 ar
  30   17   36 1
  31   18   19 ar
  32   18   22 1
  33   19   20 ar
  34   19   37 1
  35   20   38 1
  36   21   23 ar
  37   21   27 ar
  38   23   24 ar
  39   23   39 1
  40   24   25 ar
  41   24   40 1
  42   25   26 ar
  43   25   41 1
  44   26   27 ar
  45   26   42 1
  46   27   43 1

#	End of record

