#	Name: ASD00843642
#	Creating user name:	WinNT
#	Creation time:	15. 06. 2019 18:47

#	Modifying user name:	WinNT
#	Modification time:	15. 06. 2019 18:47

#	Program:	/corina/corina34_cracker 3.40 0067  02.08.2006

@<TRIPOS>MOLECULE
ASD00843642
  89   94    0    0    0
SMALL
NO_CHARGES


@<TRIPOS>ATOM
   1 F1             5.5858    -2.7325    -1.8838 F       
   2 N2             0.8156     0.9607    -0.4835 N.ar    
   3 C3             0.9789    -0.3362    -0.6845 C.ar    
   4 C4             0.8054    -1.2410     0.3552 C.ar    
   5 C5             0.4583    -0.7679     1.6085 C.ar    
   6 C6             0.2963     0.6004     1.7782 C.ar    
   7 C7             0.4848     1.4416     0.7000 C.ar    
   8 C8             0.9921    -2.7180     0.1214 C.3     
   9 C9             0.6108    -3.5031     1.3582 C.2     
  10 C10            0.1653    -3.1776    -1.0812 C.3     
  11 C11           -1.2750    -2.7819    -0.8814 C.2     
  12 N12           -2.2116    -3.1775    -1.7661 N.am    
  13 O13           -1.5914    -2.1074     0.0757 O.2     
  14 C14           -3.6024    -2.7133    -1.6513 C.3     
  15 C15           -4.0420    -2.1526    -3.0081 C.3     
  16 N16           -3.8078    -3.1611    -4.0502 N.3     
  17 C17           -2.3776    -3.4702    -4.1807 C.3     
  18 C18           -1.8685    -4.0800    -2.8756 C.3     
  19 N19           -4.3670    -2.7348    -5.3229 N.3     
  20 C20           -4.1326    -3.7437    -6.3654 C.3     
  21 C21           -4.8034    -3.2949    -7.6658 C.3     
  22 N22           -4.2612    -1.9898    -8.0686 N.3     
  23 C23           -4.4956    -0.9809    -7.0261 C.3     
  24 C24           -3.8248    -1.4297    -5.7256 C.3     
  25 C25           -4.8262    -1.5591    -9.3544 C.3     
  26 O26           -0.4824    -3.5350     1.8827 O.2     
  27 N27            1.7107    -4.1585     1.7657 N.am    
  28 C28            2.4544    -3.0410    -0.0832 C.ar    
  29 C29            2.8101    -3.9089     0.9416 C.ar    
  30 C30            3.3764    -2.6465    -1.0266 C.ar    
  31 C31            4.6780    -3.1167    -0.9600 C.ar    
  32 C32            5.0453    -3.9835     0.0582 C.ar    
  33 C33            4.1198    -4.3791     1.0046 C.ar    
  34 F34            6.3140    -4.4432     0.1250 F       
  35 C35            1.3477    -6.7723     2.5472 C.ar    
  36 C36            0.0820    -7.0374     2.0455 C.ar    
  37 C37            2.2888    -7.7818     2.6132 C.ar    
  38 C38            1.9699    -9.0551     2.1794 C.ar    
  39 C39            0.7087    -9.3220     1.6789 C.ar    
  40 C40           -0.2357    -8.3164     1.6112 C.ar    
  41 H41            0.4620   -10.3175     1.3407 H       
  42 O42           -0.8456    -6.0463     1.9800 O.3     
  43 C43           -2.1278    -6.3917     1.4522 C.3     
  44 C44           -3.0309    -5.1566     1.4572 C.3     
  45 O45            1.3188    -0.7874    -1.9181 O.3     
  46 C46            1.4200     0.1857    -2.9597 C.3     
  47 C47            1.9134    -0.4885    -4.2414 C.3     
  48 F48            3.1274    -1.1368    -3.9898 F       
  49 F49            0.9657    -1.4237    -4.6709 F       
  50 S50            1.7574    -5.1478     3.0929 S.o2    
  51 O51            3.1149    -5.1952     3.5105 O.2     
  52 O52            0.6972    -4.7304     3.9420 O.2     
  53 H53            0.3164    -1.4477     2.4356 H       
  54 H54            0.0254     1.0024     2.7432 H       
  55 H55            0.3604     2.5069     0.8268 H       
  56 H56            0.5489    -2.7076    -1.9868 H       
  57 H57            0.2345    -4.2612    -1.1769 H       
  58 H58           -4.2456    -3.5487    -1.3746 H       
  59 H59           -3.6663    -1.9318    -0.8941 H       
  60 H60           -5.1031    -1.9055    -2.9730 H       
  61 H61           -3.4664    -1.2551    -3.2345 H       
  62 H62           -2.2316    -4.1787    -4.9960 H       
  63 H63           -1.8252    -2.5544    -4.3908 H       
  64 H64           -0.7869    -4.2048    -2.9272 H       
  65 H65           -2.3441    -5.0473    -2.7134 H       
  66 H66           -3.0608    -3.8555    -6.5289 H       
  67 H67           -4.5541    -4.6979    -6.0493 H       
  68 H68           -4.6064    -4.0277    -8.4483 H       
  69 H69           -5.8788    -3.2094    -7.5096 H       
  70 H70           -4.0741    -0.0266    -7.3421 H       
  71 H71           -5.5674    -0.8691    -6.8626 H       
  72 H72           -4.0217    -0.6969    -4.9431 H       
  73 H73           -2.7494    -1.5152    -5.8819 H       
  74 H74           -5.9093    -1.4752    -9.2655 H       
  75 H75           -4.4081    -0.5906    -9.6288 H       
  76 H76           -4.5804    -2.2919   -10.1230 H       
  77 H77            3.0853    -1.9715    -1.8179 H       
  78 H78            4.4124    -5.0541     1.7953 H       
  79 H79            3.2744    -7.5758     3.0037 H       
  80 H80            2.7071    -9.8426     2.2312 H       
  81 H81           -1.2208    -8.5255     1.2209 H       
  82 H82           -2.0146    -6.7548     0.4308 H       
  83 H83           -2.5759    -7.1719     2.0676 H       
  84 H84           -3.1442    -4.7935     2.4787 H       
  85 H85           -2.5829    -4.3765     0.8418 H       
  86 H86           -4.0090    -5.4201     1.0547 H       
  87 H87            0.4412     0.6312    -3.1371 H       
  88 H88            2.1247     0.9629    -2.6636 H       
  89 H89            2.0575     0.2648    -5.0159 H       
@<TRIPOS>BOND
   1    1   31 1
   2    2    3 ar
   3    2    7 ar
   4    3    4 ar
   5    3   45 1
   6    4    5 ar
   7    4    8 1
   8    5    6 ar
   9    5   53 1
  10    6    7 ar
  11    6   54 1
  12    7   55 1
  13    8    9 1
  14    8   10 1
  15    8   28 1
  16    9   26 2
  17    9   27 am
  18   10   11 1
  19   10   56 1
  20   10   57 1
  21   11   12 am
  22   11   13 2
  23   12   14 1
  24   12   18 1
  25   14   15 1
  26   14   58 1
  27   14   59 1
  28   15   16 1
  29   15   60 1
  30   15   61 1
  31   16   17 1
  32   16   19 1
  33   17   18 1
  34   17   62 1
  35   17   63 1
  36   18   64 1
  37   18   65 1
  38   19   20 1
  39   19   24 1
  40   20   21 1
  41   20   66 1
  42   20   67 1
  43   21   22 1
  44   21   68 1
  45   21   69 1
  46   22   23 1
  47   22   25 1
  48   23   24 1
  49   23   70 1
  50   23   71 1
  51   24   72 1
  52   24   73 1
  53   25   74 1
  54   25   75 1
  55   25   76 1
  56   27   50 am
  57   27   29 1
  58   28   29 ar
  59   28   30 ar
  60   29   33 ar
  61   30   31 ar
  62   30   77 1
  63   31   32 ar
  64   32   33 ar
  65   32   34 1
  66   33   78 1
  67   35   36 ar
  68   35   37 ar
  69   35   50 1
  70   36   42 1
  71   36   40 ar
  72   37   38 ar
  73   37   79 1
  74   38   39 ar
  75   38   80 1
  76   39   40 ar
  77   39   41 1
  78   40   81 1
  79   42   43 1
  80   43   44 1
  81   43   82 1
  82   43   83 1
  83   44   84 1
  84   44   85 1
  85   44   86 1
  86   45   46 1
  87   46   47 1
  88   46   87 1
  89   46   88 1
  90   47   48 1
  91   47   49 1
  92   47   89 1
  93   50   51 2
  94   50   52 2

#	End of record

