#	Name: ASD03331697
#	Creating user name:	WinNT
#	Creation time:	15. 06. 2019 20:39

#	Modifying user name:	WinNT
#	Modification time:	15. 06. 2019 20:39

#	Program:	/corina/corina34_cracker 3.40 0067  02.08.2006

@<TRIPOS>MOLECULE
ASD03331697
  46   49    0    0    0
SMALL
NO_CHARGES


@<TRIPOS>ATOM
   1 C1             2.0461     0.2628    -0.4164 C.ar    
   2 C2             1.0348    -0.4384     0.2018 C.ar    
   3 C3             0.2381     0.1758     1.1593 C.ar    
   4 C4             0.4455     1.4928     1.5059 C.ar    
   5 C5             2.2689     1.5982    -0.0755 C.ar    
   6 C6             3.2260     2.6153    -0.5177 C.2     
   7 C7             1.4614     2.2196     0.8946 C.ar    
   8 N8             1.9060     3.5171     1.0221 N.pl3   
   9 C9             2.9573     3.7341     0.1737 C.2     
  10 S10            3.8295     5.2566     0.0126 S.o2    
  11 O11            3.1908     6.1791     0.8847 O.2     
  12 O12            5.2118     4.9379     0.0957 O.2     
  13 N13            3.5688     5.8104    -1.5261 N.am    
  14 C14            2.2171     6.1815    -1.9519 C.3     
  15 C15            2.2334     7.1555    -5.5917 C.ar    
  16 C16            2.1608     6.3916    -4.4392 C.ar    
  17 C17            2.2958     7.0086    -3.2092 C.ar    
  18 N18            2.4920     8.3100    -3.1191 N.ar    
  19 C19            2.5680     9.0771    -4.1871 C.ar    
  20 C20            2.4419     8.5311    -5.4629 C.ar    
  21 C21            2.5282     9.3965    -6.6653 C.ar    
  22 C22            2.7364    10.7672    -6.5267 C.ar    
  23 C23            2.8163    11.5673    -7.6485 C.ar    
  24 C24            2.6898    11.0108    -8.9085 C.ar    
  25 C25            2.4825     9.6508    -9.0518 C.ar    
  26 C26            2.4072     8.8404    -7.9371 C.ar    
  27 Br27           0.7287    -2.2474    -0.2562 Br      
  28 C28            4.3071     2.4390    -1.5526 C.3     
  29 H29            2.6664    -0.2190    -1.1577 H       
  30 H30           -0.5520    -0.3846     1.6367 H       
  31 H31           -0.1806     1.9606     2.2514 H       
  32 H32            1.5295     4.1787     1.6234 H       
  33 H33            4.3112     5.8890    -2.1455 H       
  34 H34            1.6368     5.2795    -2.1461 H       
  35 H35            1.7347     6.7615    -1.1651 H       
  36 H36            2.1357     6.6991    -6.5656 H       
  37 H37            2.0002     5.3254    -4.5003 H       
  38 H38            2.7291    10.1389    -4.0730 H       
  39 H39            2.8347    11.2028    -5.5434 H       
  40 H40            2.9777    12.6299    -7.5423 H       
  41 H41            2.7526    11.6406    -9.7836 H       
  42 H42            2.3837     9.2216   -10.0379 H       
  43 H43            2.2502     7.7779    -8.0503 H       
  44 H44            3.8919     2.6136    -2.5452 H       
  45 H45            5.1101     3.1516    -1.3642 H       
  46 H46            4.7013     1.4243    -1.4970 H       
@<TRIPOS>BOND
   1    1    2 ar
   2    1    5 ar
   3    1   29 1
   4    2    3 ar
   5    2   27 1
   6    3    4 ar
   7    3   30 1
   8    4    7 ar
   9    4   31 1
  10    5    7 ar
  11    5    6 1
  12    6    9 2
  13    6   28 1
  14    7    8 1
  15    8    9 1
  16    8   32 1
  17    9   10 1
  18   10   11 2
  19   10   12 2
  20   10   13 am
  21   13   14 1
  22   13   33 1
  23   14   17 1
  24   14   34 1
  25   14   35 1
  26   15   16 ar
  27   15   20 ar
  28   15   36 1
  29   16   17 ar
  30   16   37 1
  31   17   18 ar
  32   18   19 ar
  33   19   20 ar
  34   19   38 1
  35   20   21 1
  36   21   22 ar
  37   21   26 ar
  38   22   23 ar
  39   22   39 1
  40   23   24 ar
  41   23   40 1
  42   24   25 ar
  43   24   41 1
  44   25   26 ar
  45   25   42 1
  46   26   43 1
  47   28   44 1
  48   28   45 1
  49   28   46 1

#	End of record

