#	Name: ASD01140684
#	Creating user name:	WinNT
#	Creation time:	15. 06. 2019 19:01

#	Modifying user name:	WinNT
#	Modification time:	15. 06. 2019 19:01

#	Program:	/corina/corina34_cracker 3.40 0067  02.08.2006

@<TRIPOS>MOLECULE
ASD01140684
  38   41    0    0    0
SMALL
NO_CHARGES


@<TRIPOS>ATOM
   1 N1            -0.0161     1.3387     0.0094 N.pl3   
   2 C2             0.0021    -0.0041     0.0020 C.2     
   3 C3             1.1791    -0.7099    -0.0125 C.2     
   4 C4             2.4648     0.0244    -0.0208 C.2     
   5 C5             2.4001     1.4980    -0.0137 C.ar    
   6 C6             3.5552     2.2747    -0.0209 C.ar    
   7 C7             3.4556     3.6493    -0.0142 C.ar    
   8 C8             2.2051     4.2589     0.0003 C.ar    
   9 C9             1.0507     3.4953     0.0081 C.ar    
  10 C10            1.1344     2.1083     0.0025 C.ar    
  11 N11            2.8977    -2.1590    -0.0352 N.am    
  12 N12            3.4184    -0.8626    -0.0338 N.2     
  13 C13            1.5477    -2.1223    -0.0226 C.2     
  14 O14            0.7886    -3.0779    -0.0199 O.2     
  15 O15            2.1164     5.6146     0.0073 O.3     
  16 C16            3.3445     6.3451    -0.0008 C.3     
  17 H17            3.9278     6.0852     0.8826 H       
  18 H18            3.9111     6.0933    -0.8973 H       
  19 H19            3.1315     7.4141     0.0060 H       
  20 C20            3.0521    -4.5744    -0.0493 C.ar    
  21 C21            3.6666    -3.3307    -0.0486 C.ar    
  22 C22            5.0586    -3.2613    -0.0618 C.ar    
  23 C23            5.7767    -4.4437    -0.0751 C.ar    
  24 C24            5.0921    -5.6520    -0.0750 C.ar    
  25 N25            3.7699    -5.6809    -0.0623 N.ar    
  26 O26            5.7882    -6.8172    -0.0885 O.3     
  27 C27            5.0280    -8.0272    -0.0876 C.3     
  28 H28           -0.8748     1.7899     0.0158 H       
  29 H29           -0.9340    -0.5427     0.0080 H       
  30 H30            4.5261     1.8019    -0.0314 H       
  31 H31            4.3501     4.2544    -0.0198 H       
  32 H32            0.0845     3.9777     0.0200 H       
  33 H33            1.9741    -4.6374    -0.0346 H       
  34 H34            5.5645    -2.3072    -0.0619 H       
  35 H35            6.8565    -4.4272    -0.0859 H       
  36 H36            4.4086    -8.0664     0.8084 H       
  37 H37            4.3907    -8.0565    -0.9714 H       
  38 H38            5.7048    -8.8815    -0.0992 H       
@<TRIPOS>BOND
   1    1    2 1
   2    1   10 1
   3    1   28 1
   4    2    3 2
   5    2   29 1
   6    3    4 1
   7    3   13 1
   8    4    5 1
   9    4   12 2
  10    5    6 ar
  11    5   10 ar
  12    6    7 ar
  13    6   30 1
  14    7    8 ar
  15    7   31 1
  16    8    9 ar
  17    8   15 1
  18    9   10 ar
  19    9   32 1
  20   11   12 1
  21   11   13 am
  22   11   21 1
  23   13   14 2
  24   15   16 1
  25   16   17 1
  26   16   18 1
  27   16   19 1
  28   20   21 ar
  29   20   25 ar
  30   20   33 1
  31   21   22 ar
  32   22   23 ar
  33   22   34 1
  34   23   24 ar
  35   23   35 1
  36   24   25 ar
  37   24   26 1
  38   26   27 1
  39   27   36 1
  40   27   37 1
  41   27   38 1

#	End of record

