#	Name: ASD01001047
#	Creating user name:	WinNT
#	Creation time:	15. 06. 2019 18:55

#	Modifying user name:	WinNT
#	Modification time:	15. 06. 2019 18:55

#	Program:	/corina/corina34_cracker 3.40 0067  02.08.2006

@<TRIPOS>MOLECULE
ASD01001047
  48   50    0    0    0
SMALL
NO_CHARGES


@<TRIPOS>ATOM
   1 C1             0.6017     0.5335    -1.1216 C.ar    
   2 C2             1.0427    -0.7663    -0.9633 C.ar    
   3 C3             1.4375     1.5906    -0.8133 C.ar    
   4 C4             2.3253    -1.0100    -0.4947 C.ar    
   5 C5             2.7166     1.3503    -0.3460 C.ar    
   6 C6             3.1623     0.0528    -0.1861 C.ar    
   7 C7             3.6251     2.5051    -0.0110 C.3     
   8 C8             2.8694     3.7998    -0.1648 C.ar    
   9 C9             4.1058     2.3699     1.4109 C.ar    
  10 S10            5.0496     2.4993    -1.1340 S.3     
  11 C11            3.2869     4.7381    -1.0901 C.ar    
  12 C12            1.7553     4.0467     0.6154 C.ar    
  13 C13            3.3273     1.7111     2.3440 C.ar    
  14 C14            5.3279     2.8998     1.7806 C.ar    
  15 C15            4.2760     2.4560    -2.7742 C.3     
  16 C16            2.5904     5.9233    -1.2352 C.ar    
  17 C17            1.0621     5.2344     0.4744 C.ar    
  18 C18            3.7708     1.5822     3.6469 C.ar    
  19 C19            5.7688     2.7759     3.0849 C.ar    
  20 C20            5.3557     2.5821    -3.8509 C.3     
  21 C21            1.4761     6.1700    -0.4552 C.ar    
  22 C22            4.9931     2.1117     4.0166 C.ar    
  23 N23            4.7292     2.5470    -5.1791 N.3     
  24 H24            5.8866     3.5256    -3.7243 H       
  25 O25            2.7614    -2.2875    -0.3378 O.3     
  26 C26            1.8456    -3.3316    -0.6748 C.3     
  27 F27            1.4864    -3.2198    -2.0222 F       
  28 F28            2.4524    -4.5729    -0.4553 F       
  29 F29            0.7017    -3.2241     0.1233 F       
  30 H30           -0.3953     0.7238    -1.4906 H       
  31 H31            0.3893    -1.5918    -1.2039 H       
  32 H32            1.0910     2.6059    -0.9381 H       
  33 H33            4.1612    -0.1344     0.1793 H       
  34 H34            4.1575     4.5453    -1.6995 H       
  35 H35            1.4263     3.3116     1.3350 H       
  36 H36            2.3724     1.2974     2.0552 H       
  37 H37            5.9383     3.4103     1.0505 H       
  38 H38            3.7451     1.5125    -2.9008 H       
  39 H39            3.5728     3.2837    -2.8662 H       
  40 H40            2.9170     6.6566    -1.9576 H       
  41 H41            0.1916     5.4272     1.0837 H       
  42 H42            3.1622     1.0681     4.3761 H       
  43 H43            6.7237     3.1895     3.3737 H       
  44 H44            6.0590     1.7544    -3.7589 H       
  45 H45            0.9321     7.0961    -0.5683 H       
  46 H46            5.3375     2.0148     5.0356 H       
  47 H47            5.4221     2.6287    -5.9080 H       
  48 H48            4.1775     1.7104    -5.2967 H       
@<TRIPOS>BOND
   1    1    2 ar
   2    1    3 ar
   3    1   30 1
   4    2    4 ar
   5    2   31 1
   6    3    5 ar
   7    3   32 1
   8    4    6 ar
   9    4   25 1
  10    5    6 ar
  11    5    7 1
  12    6   33 1
  13    7   10 1
  14    7    8 1
  15    7    9 1
  16    8   12 ar
  17    8   11 ar
  18    9   14 ar
  19    9   13 ar
  20   10   15 1
  21   11   16 ar
  22   11   34 1
  23   12   17 ar
  24   12   35 1
  25   13   18 ar
  26   13   36 1
  27   14   19 ar
  28   14   37 1
  29   15   20 1
  30   15   38 1
  31   15   39 1
  32   16   21 ar
  33   16   40 1
  34   17   21 ar
  35   17   41 1
  36   18   22 ar
  37   18   42 1
  38   19   22 ar
  39   19   43 1
  40   20   23 1
  41   20   24 1
  42   20   44 1
  43   21   45 1
  44   22   46 1
  45   23   47 1
  46   23   48 1
  47   25   26 1
  48   26   27 1
  49   26   28 1
  50   26   29 1

#	End of record

