#	Name: ASD01885762
#	Creating user name:	WinNT
#	Creation time:	15. 06. 2019 19:50

#	Modifying user name:	WinNT
#	Modification time:	15. 06. 2019 19:50

#	Program:	/corina/corina34_cracker 3.40 0067  02.08.2006

@<TRIPOS>MOLECULE
ASD01885762
  61   63    0    0    0
SMALL
NO_CHARGES


@<TRIPOS>ATOM
   1 C1             0.2113     0.9704     0.9980 C.ar    
   2 C2            -1.0859     1.5196     0.8372 C.ar    
   3 C3            -2.2158     0.6844     1.0281 C.ar    
   4 C4            -1.9926    -0.6435     1.3666 C.ar    
   5 C5            -0.6805    -1.1079     1.5063 C.ar    
   6 N6             0.3584    -0.3144     1.3239 N.ar    
   7 C7             1.1552     3.1070     0.4705 C.ar    
   8 C8            -0.1215     3.6436     0.3196 C.ar    
   9 C9            -1.2299     2.8701     0.4949 C.ar    
  10 C10           -3.5905     1.2120     0.8719 C.2     
  11 C11           -0.4510    -2.5276     1.8680 C.2     
  12 C12            2.3594     3.9907     0.2699 C.3     
  13 N13            2.8255     4.4862     1.5718 N.3     
  14 C14            1.3323     1.7994     0.8029 C.ar    
  15 N15            0.8063    -2.9928     2.0065 N.am    
  16 O16           -1.3963    -3.2713     2.0395 O.2     
  17 C17            1.8404     5.3976     2.1721 C.3     
  18 C18            2.3377     5.8420     3.5501 C.3     
  19 O19            3.6249     6.4500     3.4136 O.3     
  20 C20            4.6091     5.5901     2.8328 C.3     
  21 C21            4.1348     5.1431     1.4475 C.3     
  22 C22           -4.5903     0.6551     0.1242 C.2     
  23 N23           -5.6772     1.4403     0.2487 N.pl3   
  24 N24           -5.3521     2.5102     1.0910 N.2     
  25 C25           -4.1099     2.3777     1.4720 C.2     
  26 C26           -6.9768     1.2141    -0.3886 C.3     
  27 C27            1.6638     6.6229     1.2730 C.3     
  28 C28            5.1456     4.1596     0.8542 C.3     
  29 H29           -2.8259    -1.3129     1.5212 H       
  30 H30           -0.2345     4.6859     0.0604 H       
  31 H31           -2.2144     3.2963     0.3702 H       
  32 H32            3.1549     3.4180    -0.2069 H       
  33 H33            2.0890     4.8348    -0.3646 H       
  34 H34            2.3289     1.3992     0.9170 H       
  35 H35            1.5611    -2.3991     1.8696 H       
  36 H36            0.9565    -3.9215     2.2431 H       
  37 H37            0.8856     4.8826     2.2783 H       
  38 H38            1.6382     6.5622     3.9746 H       
  39 H39            2.4123     4.9754     4.2071 H       
  40 H40            5.5524     6.1281     2.7386 H       
  41 H41            4.7498     4.7162     3.4689 H       
  42 H42            4.0457     6.0120     0.7954 H       
  43 H43           -4.5209    -0.2502    -0.4606 H       
  44 H44           -3.5734     3.0456     2.1297 H       
  45 H45           -7.6026     0.6088     0.2672 H       
  46 H46           -7.4631     2.1722    -0.5722 H       
  47 H47           -6.8316     0.6931    -1.3349 H       
  48 H48            1.3134     6.3055     0.2909 H       
  49 H49            0.9333     7.2982     1.7186 H       
  50 H50            2.6187     7.1380     1.1691 H       
  51 H51            5.1894     3.2648     1.4752 H       
  52 H52            4.8375     3.8866    -0.1551 H       
  53 H53            6.1299     4.6266     0.8199 H       
  54 C54           12.1317    14.2053    10.1123 C.3     
  55 C55           12.1525    12.6755    10.1038 C.3     
  56 H56           13.1543    14.5826    10.1045 H       
  57 H57           11.6045    14.5664     9.2292 H       
  58 H58           11.6215    14.5568    11.0091 H       
  59 H59           12.6796    12.3144    10.9869 H       
  60 H60           11.1299    12.2982    10.1116 H       
  61 H61           12.6626    12.3240     9.2071 H       
@<TRIPOS>BOND
   1    1    6 ar
   2    1   14 ar
   3    1    2 ar
   4    2    3 ar
   5    2    9 ar
   6    3   10 1
   7    3    4 ar
   8    4    5 ar
   9    4   29 1
  10    5   11 1
  11    5    6 ar
  12    7   12 1
  13    7    8 ar
  14    7   14 ar
  15    8    9 ar
  16    8   30 1
  17    9   31 1
  18   10   22 2
  19   10   25 1
  20   11   15 am
  21   11   16 2
  22   12   13 1
  23   12   32 1
  24   12   33 1
  25   13   17 1
  26   13   21 1
  27   14   34 1
  28   15   35 1
  29   15   36 1
  30   17   18 1
  31   17   27 1
  32   17   37 1
  33   18   19 1
  34   18   38 1
  35   18   39 1
  36   19   20 1
  37   20   21 1
  38   20   40 1
  39   20   41 1
  40   21   28 1
  41   21   42 1
  42   22   23 1
  43   22   43 1
  44   23   26 1
  45   23   24 1
  46   24   25 2
  47   25   44 1
  48   26   45 1
  49   26   46 1
  50   26   47 1
  51   27   48 1
  52   27   49 1
  53   27   50 1
  54   28   51 1
  55   28   52 1
  56   28   53 1
  57   54   55 1
  58   54   56 1
  59   54   57 1
  60   54   58 1
  61   55   59 1
  62   55   60 1
  63   55   61 1

#	End of record

