#	Name: ASD03081345
#	Creating user name:	WinNT
#	Creation time:	15. 06. 2019 20:27

#	Modifying user name:	WinNT
#	Modification time:	15. 06. 2019 20:27

#	Program:	/corina/corina34_cracker 3.40 0067  02.08.2006

@<TRIPOS>MOLECULE
ASD03081345
  32   34    0    0    0
SMALL
NO_CHARGES


@<TRIPOS>ATOM
   1 O1            -0.0162     1.3444     0.0094 O.3     
   2 C2             0.0021    -0.0041     0.0020 C.2     
   3 N3             1.2606    -0.3805    -0.0120 N.2     
   4 N4             2.0177     0.6598    -0.0137 N.2     
   5 C5             1.2725     1.7416    -0.0007 C.2     
   6 C6             0.8547     4.2023     0.0156 C.ar    
   7 C7             1.7573     3.1373     0.0017 C.ar    
   8 C8             3.1296     3.4143    -0.0094 C.ar    
   9 C9             3.5313     4.7386    -0.0061 C.ar    
  10 C10            2.5739     5.7366     0.0079 C.ar    
  11 N11            1.2869     5.4461     0.0177 N.ar    
  12 C12           -1.1769    -0.8945     0.0085 C.ar    
  13 C13           -1.0088    -2.2805    -0.0006 C.ar    
  14 C14           -2.1139    -3.1061     0.0060 C.ar    
  15 C15           -3.3867    -2.5636     0.0216 C.ar    
  16 C16           -3.5603    -1.1909     0.0302 C.ar    
  17 C17           -2.4639    -0.3538     0.0295 C.ar    
  18 S18           -4.7927    -3.6256     0.0299 S.o2    
  19 O19           -5.8238    -2.8465    -0.5609 O.2     
  20 O20           -4.3329    -4.8206    -0.5863 O.2     
  21 C21           -5.1364    -3.9077     1.7886 C.3     
  22 H22           -0.2070     4.0044     0.0197 H       
  23 H23            3.8559     2.6151    -0.0199 H       
  24 H24            4.5816     4.9901    -0.0140 H       
  25 H25            2.8849     6.7709     0.0105 H       
  26 H26           -0.0159    -2.7052    -0.0130 H       
  27 H27           -1.9854    -4.1784    -0.0013 H       
  28 H28           -4.5565    -0.7740     0.0419 H       
  29 H29           -2.6008     0.7174     0.0411 H       
  30 H30           -5.3432    -2.9549     2.2758 H       
  31 H31           -6.0019    -4.5626     1.8891 H       
  32 H32           -4.2706    -4.3752     2.2576 H       
@<TRIPOS>BOND
   1    1    2 1
   2    1    5 1
   3    2    3 2
   4    2   12 1
   5    3    4 1
   6    4    5 2
   7    5    7 1
   8    6    7 ar
   9    6   11 ar
  10    6   22 1
  11    7    8 ar
  12    8    9 ar
  13    8   23 1
  14    9   10 ar
  15    9   24 1
  16   10   11 ar
  17   10   25 1
  18   12   13 ar
  19   12   17 ar
  20   13   14 ar
  21   13   26 1
  22   14   15 ar
  23   14   27 1
  24   15   16 ar
  25   15   18 1
  26   16   17 ar
  27   16   28 1
  28   17   29 1
  29   18   19 2
  30   18   20 2
  31   18   21 1
  32   21   30 1
  33   21   31 1
  34   21   32 1

#	End of record

