#	Name: ASD01882743
#	Creating user name:	WinNT
#	Creation time:	15. 06. 2019 19:45

#	Modifying user name:	WinNT
#	Modification time:	15. 06. 2019 19:45

#	Program:	/corina/corina34_cracker 3.40 0067  02.08.2006

@<TRIPOS>MOLECULE
ASD01882743
  40   43    0    0    0
SMALL
NO_CHARGES


@<TRIPOS>ATOM
   1 C1            -0.0159     1.3220     0.0093 C.2     
   2 N2             0.0021    -0.0041     0.0020 N.2     
   3 C3             1.1523    -0.6857    -0.0126 C.2     
   4 C4             2.3835     0.0173    -0.0206 C.2     
   5 C5             2.3523     1.3664    -0.0131 C.2     
   6 N6             1.1484     2.0132     0.0019 N.pl3   
   7 O7            -1.0993     2.1290     0.0184 O.3     
   8 C8             0.8540     3.4562     0.0125 C.3     
   9 C9            -0.6831     3.5211     0.0242 C.3     
  10 O10            1.1423    -1.9071    -0.0187 O.2     
  11 C11           -1.1944     4.2379    -1.2270 C.3     
  12 O12           -2.6209     4.3119    -1.1842 O.3     
  13 C13           -4.6188     5.0316    -2.2548 C.ar    
  14 C14           -3.2386     4.9234    -2.2289 C.ar    
  15 C15           -2.4897     5.4428    -3.2747 C.ar    
  16 C16           -3.1261     6.0642    -4.3282 C.ar    
  17 C17           -4.5106     6.1742    -4.3531 C.ar    
  18 C18           -5.1364     6.8732    -5.5318 C.3     
  19 C19           -6.6222     6.5338    -5.6310 C.3     
  20 C20           -7.2684     6.7858    -4.2637 C.3     
  21 C21           -6.7612     5.7256    -3.2884 C.3     
  22 C22           -5.2567     5.6548    -3.3182 C.ar    
  23 H23            3.3237    -0.5140    -0.0321 H       
  24 H24            3.2727     1.9314    -0.0185 H       
  25 H25            1.2651     3.9237     0.9072 H       
  26 H26            1.2480     3.9334    -0.8848 H       
  27 H27           -1.0396     4.0220     0.9243 H       
  28 H28           -0.7793     5.2451    -1.2639 H       
  29 H29           -0.8857     3.6850    -2.1142 H       
  30 H30           -5.2036     4.6244    -1.4433 H       
  31 H31           -1.4129     5.3611    -3.2636 H       
  32 H32           -2.5425     6.4696    -5.1415 H       
  33 H33           -5.0210     7.9506    -5.4135 H       
  34 H34           -4.6337     6.5568    -6.4457 H       
  35 H35           -7.0940     7.1671    -6.3823 H       
  36 H36           -6.7418     5.4859    -5.9059 H       
  37 H37           -6.9925     7.7772    -3.9043 H       
  38 H38           -8.3526     6.7153    -4.3514 H       
  39 H39           -7.0892     5.9783    -2.2801 H       
  40 H40           -7.1722     4.7551    -3.5667 H       
@<TRIPOS>BOND
   1    1    2 2
   2    1    6 1
   3    1    7 1
   4    2    3 1
   5    3    4 1
   6    3   10 2
   7    4    5 2
   8    4   23 1
   9    5    6 1
  10    5   24 1
  11    6    8 1
  12    7    9 1
  13    8    9 1
  14    8   25 1
  15    8   26 1
  16    9   11 1
  17    9   27 1
  18   11   12 1
  19   11   28 1
  20   11   29 1
  21   12   14 1
  22   13   14 ar
  23   13   22 ar
  24   13   30 1
  25   14   15 ar
  26   15   16 ar
  27   15   31 1
  28   16   17 ar
  29   16   32 1
  30   17   18 1
  31   17   22 ar
  32   18   19 1
  33   18   33 1
  34   18   34 1
  35   19   20 1
  36   19   35 1
  37   19   36 1
  38   20   21 1
  39   20   37 1
  40   20   38 1
  41   21   22 1
  42   21   39 1
  43   21   40 1

#	End of record

