#	Name: ASD02500244
#	Creating user name:	WinNT
#	Creation time:	15. 06. 2019 20:22

#	Modifying user name:	WinNT
#	Modification time:	15. 06. 2019 20:22

#	Program:	/corina/corina34_cracker 3.40 0067  02.08.2006

@<TRIPOS>MOLECULE
ASD02500244
  63   67    0    0    0
SMALL
NO_CHARGES


@<TRIPOS>ATOM
   1 N1            -1.8487     4.6206     1.9227 N.ar    
   2 C2            -2.9553     5.2458     2.2434 C.ar    
   3 C3            -3.7406     4.8406     3.3207 C.ar    
   4 C4            -3.3629     3.7653     4.0732 C.ar    
   5 C5            -2.1741     3.0960     3.7256 C.ar    
   6 C6            -1.7220     1.9834     4.4526 C.ar    
   7 C7            -0.5667     1.3635     4.0849 C.ar    
   8 C8             0.1738     1.8191     2.9963 C.ar    
   9 C9            -0.2351     2.8947     2.2694 C.ar    
  10 C10           -1.4225     3.5613     2.6179 C.ar    
  11 S11            0.7210     3.4502     0.8976 S.o2    
  12 O12            0.8631     4.8558     1.0504 O.2     
  13 O13            1.8269     2.5639     0.7941 O.2     
  14 N14           -0.1935     3.2179    -0.4634 N.am    
  15 C15           -0.5435     1.9301    -0.8544 C.ar    
  16 C16           -1.8560     1.6482    -1.2136 C.ar    
  17 C17           -2.2042     0.3671    -1.6031 C.ar    
  18 C18           -1.2264    -0.6401    -1.6323 C.ar    
  19 C19            0.0902    -0.3404    -1.2679 C.ar    
  20 C20            0.4243     0.9282    -0.8902 C.ar    
  21 C21           -1.5859    -2.0069    -2.0447 C.2     
  22 O22           -2.4901    -2.5940    -1.4817 O.2     
  23 N23           -0.9129    -2.6076    -3.0461 N.am    
  24 C24           -1.3248    -3.9306    -3.5359 C.3     
  25 C25           -1.5661    -3.8401    -5.0478 C.3     
  26 N26           -0.4076    -3.1836    -5.6698 N.am    
  27 C27            0.0043    -1.8607    -5.1799 C.3     
  28 C28            0.2421    -1.9487    -3.6718 C.3     
  29 C29            0.2653    -3.7843    -6.6712 C.2     
  30 C30            1.3540    -3.0649    -7.3660 C.ar    
  31 C31            1.2860    -1.6788    -7.5523 C.ar    
  32 C32            2.3312    -1.0533    -8.2083 C.ar    
  33 C33            3.3999    -1.8099    -8.6550 C.ar    
  34 N34            3.4368    -3.1149    -8.4657 N.ar    
  35 C35            2.4694    -3.7549    -7.8421 C.ar    
  36 O36           -0.0230    -4.9176    -7.0031 O.2     
  37 O37           -3.4839     0.0855    -1.9545 O.3     
  38 C38           -4.4234     1.1608    -1.8997 C.3     
  39 H39           -3.2664     6.0979     1.6573 H       
  40 H40           -4.6470     5.3765     3.5606 H       
  41 H41           -3.9594     3.4377     4.9118 H       
  42 H42           -2.2870     1.6214     5.2988 H       
  43 H43           -0.2196     0.5076     4.6447 H       
  44 H44            1.0873     1.3107     2.7250 H       
  45 H45           -0.4849     3.9801    -0.9878 H       
  46 H46           -2.6030     2.4278    -1.1885 H       
  47 H47            0.8446    -1.1129    -1.2893 H       
  48 H48            1.4433     1.1556    -0.6139 H       
  49 H49           -0.5375    -4.6569    -3.3340 H       
  50 H50           -2.2443    -4.2357    -3.0364 H       
  51 H51           -1.6837    -4.8422    -5.4602 H       
  52 H52           -2.4652    -3.2547    -5.2404 H       
  53 H53            0.9237    -1.5556    -5.6795 H       
  54 H54           -0.7830    -1.1344    -5.3819 H       
  55 H55            0.3572    -0.9453    -3.2619 H       
  56 H56            1.1436    -2.5306    -3.4798 H       
  57 H57            0.4392    -1.1126    -7.1934 H       
  58 H58            2.3129     0.0144    -8.3703 H       
  59 H59            4.2172    -1.3242    -9.1675 H       
  60 H60            2.5377    -4.8236    -7.7021 H       
  61 H61           -5.4060     0.8007    -2.2047 H       
  62 H62           -4.4772     1.5448    -0.8810 H       
  63 H63           -4.1037     1.9572    -2.5717 H       
@<TRIPOS>BOND
   1    1    2 ar
   2    1   10 ar
   3    2    3 ar
   4    2   39 1
   5    3    4 ar
   6    3   40 1
   7    4    5 ar
   8    4   41 1
   9    5    6 ar
  10    5   10 ar
  11    6    7 ar
  12    6   42 1
  13    7    8 ar
  14    7   43 1
  15    8    9 ar
  16    8   44 1
  17    9   10 ar
  18    9   11 1
  19   11   12 2
  20   11   13 2
  21   11   14 am
  22   14   15 1
  23   14   45 1
  24   15   16 ar
  25   15   20 ar
  26   16   17 ar
  27   16   46 1
  28   17   18 ar
  29   17   37 1
  30   18   19 ar
  31   18   21 1
  32   19   20 ar
  33   19   47 1
  34   20   48 1
  35   21   22 2
  36   21   23 am
  37   23   24 1
  38   23   28 1
  39   24   25 1
  40   24   49 1
  41   24   50 1
  42   25   26 1
  43   25   51 1
  44   25   52 1
  45   26   27 1
  46   26   29 am
  47   27   28 1
  48   27   53 1
  49   27   54 1
  50   28   55 1
  51   28   56 1
  52   29   30 1
  53   29   36 2
  54   30   31 ar
  55   30   35 ar
  56   31   32 ar
  57   31   57 1
  58   32   33 ar
  59   32   58 1
  60   33   34 ar
  61   33   59 1
  62   34   35 ar
  63   35   60 1
  64   37   38 1
  65   38   61 1
  66   38   62 1
  67   38   63 1

#	End of record

