#	Name: ASD01903100
#	Creating user name:	WinNT
#	Creation time:	15. 06. 2019 19:54

#	Modifying user name:	WinNT
#	Modification time:	15. 06. 2019 19:54

#	Program:	/corina/corina34_cracker 3.40 0067  02.08.2006

@<TRIPOS>MOLECULE
ASD01903100
  26   28    0    0    0
SMALL
NO_CHARGES


@<TRIPOS>ATOM
   1 C1            -0.0159     1.2932     0.0210 C.2     
   2 N2             0.0004    -0.0032     0.0040 N.2     
   3 C3            -1.1804    -0.6207     0.0262 C.2     
   4 C4            -2.2518     0.1908     0.0639 C.2     
   5 S5            -1.6827     1.8582     0.0783 S.3     
   6 C6            -1.3042    -2.1008     0.0100 C.2     
   7 N7             1.1069     2.1094     0.0028 N.pl3   
   8 C8            -2.2846    -2.8608     0.6763 C.2     
   9 N9            -2.0634    -4.1237     0.4215 N.2     
  10 N10           -0.9418    -4.2195    -0.4112 N.pl3   
  11 C11           -0.4925    -2.9698    -0.6577 C.2     
  12 C12            0.9621     3.4898    -0.0934 C.ar    
  13 N13           -0.2412     4.0123    -0.2730 N.ar    
  14 C14           -0.4221     5.3159    -0.3689 C.ar    
  15 C15            0.6455     6.1869    -0.2852 C.ar    
  16 C16            1.9245     5.6793    -0.0970 C.ar    
  17 C17            2.0822     4.3091     0.0057 C.ar    
  18 F18           -3.5433    -0.2047     0.0917 F       
  19 H19            1.9925     1.7173     0.0572 H       
  20 H20           -3.0810    -2.4684     1.2913 H       
  21 H21           -0.5566    -5.0408    -0.7547 H       
  22 H22            0.3591    -2.7068    -1.2676 H       
  23 H23           -1.4184     5.7063    -0.5152 H       
  24 H24            0.4879     7.2523    -0.3655 H       
  25 H25            2.7762     6.3398    -0.0286 H       
  26 H26            3.0626     3.8805     0.1527 H       
@<TRIPOS>BOND
   1    1    2 2
   2    1    7 1
   3    1    5 1
   4    2    3 1
   5    3    4 2
   6    3    6 1
   7    4    5 1
   8    4   18 1
   9    6    8 1
  10    6   11 2
  11    7   12 1
  12    7   19 1
  13    8    9 2
  14    8   20 1
  15    9   10 1
  16   10   11 1
  17   10   21 1
  18   11   22 1
  19   12   13 ar
  20   12   17 ar
  21   13   14 ar
  22   14   15 ar
  23   14   23 1
  24   15   16 ar
  25   15   24 1
  26   16   17 ar
  27   16   25 1
  28   17   26 1

#	End of record

