#	Name: ASD02560525
#	Creating user name:	WinNT
#	Creation time:	15. 06. 2019 20:25

#	Modifying user name:	WinNT
#	Modification time:	15. 06. 2019 20:25

#	Program:	/corina/corina34_cracker 3.40 0067  02.08.2006

@<TRIPOS>MOLECULE
ASD02560525
  42   45    0    0    0
SMALL
NO_CHARGES


@<TRIPOS>ATOM
   1 C1            -0.0011     1.5816     0.1125 C.2     
   2 C2            -0.0179     0.1785     0.0879 C.2     
   3 C3             1.1539    -0.4996     0.0498 C.2     
   4 N4             2.3282     0.2026     0.0362 N.pl3   
   5 C5             2.3082     1.5790     0.0611 C.2     
   6 N6             1.1366     2.2339     0.0989 N.2     
   7 C7             3.6378    -0.1887    -0.0003 C.2     
   8 C8             4.3962     0.9620     0.0030 C.2     
   9 N9             3.5565     2.0148     0.0407 N.2     
  10 C10            5.8757     1.0295    -0.0285 C.ar    
  11 N11            4.1143    -1.4997    -0.0344 N.3     
  12 C12            3.0129    -2.4636     0.0910 C.3     
  13 C13            6.6304     0.2661     0.8615 C.ar    
  14 C14            6.5203     1.8531    -0.9531 C.ar    
  15 C15            2.3415    -2.6508    -1.2711 C.3     
  16 C16            3.5628    -3.8060     0.5772 C.3     
  17 C17            2.4157    -4.8099     0.7078 C.3     
  18 C18            1.7443    -4.9971    -0.6542 C.3     
  19 C19            1.1944    -3.6547    -1.1405 C.3     
  20 C20            8.0086     0.3328     0.8271 C.ar    
  21 C21            8.6420     1.1546    -0.0877 C.ar    
  22 C22            7.8996     1.9109    -0.9773 C.ar    
  23 Cl23           5.5900     2.8020    -2.0701 Cl      
  24 H24           -0.9321     2.1285     0.1384 H       
  25 H25           -0.9565    -0.3556     0.0997 H       
  26 H26            1.1613    -1.5794     0.0308 H       
  27 H27            4.6488    -1.6685    -0.8734 H       
  28 H28            2.2822    -2.0891     0.8078 H       
  29 H29            6.1375    -0.3758     1.5766 H       
  30 H30            1.9497    -1.6944    -1.6175 H       
  31 H31            3.0722    -3.0252    -1.9880 H       
  32 H32            4.2936    -4.1804    -0.1396 H       
  33 H33            4.0412    -3.6726     1.5476 H       
  34 H34            2.8075    -5.7662     1.0543 H       
  35 H35            1.6850    -4.4354     1.4247 H       
  36 H36            2.4750    -5.3716    -1.3711 H       
  37 H37            0.9270    -5.7123    -0.5612 H       
  38 H38            0.4636    -3.2802    -0.4236 H       
  39 H39            0.7160    -3.7881    -2.1108 H       
  40 H40            8.5938    -0.2579     1.5163 H       
  41 H41            9.7206     1.2033    -0.1101 H       
  42 H42            8.3999     2.5507    -1.6892 H       
@<TRIPOS>BOND
   1    1    2 1
   2    1    6 2
   3    1   24 1
   4    2    3 2
   5    2   25 1
   6    3    4 1
   7    3   26 1
   8    4    5 1
   9    4    7 1
  10    5    6 1
  11    5    9 2
  12    7    8 2
  13    7   11 1
  14    8    9 1
  15    8   10 1
  16   10   13 ar
  17   10   14 ar
  18   11   12 1
  19   11   27 1
  20   12   16 1
  21   12   15 1
  22   12   28 1
  23   13   20 ar
  24   13   29 1
  25   14   23 1
  26   14   22 ar
  27   15   19 1
  28   15   30 1
  29   15   31 1
  30   16   17 1
  31   16   32 1
  32   16   33 1
  33   17   18 1
  34   17   34 1
  35   17   35 1
  36   18   19 1
  37   18   36 1
  38   18   37 1
  39   19   38 1
  40   19   39 1
  41   20   21 ar
  42   20   40 1
  43   21   22 ar
  44   21   41 1
  45   22   42 1

#	End of record

