#	Name: ASD01883886
#	Creating user name:	WinNT
#	Creation time:	15. 06. 2019 19:47

#	Modifying user name:	WinNT
#	Modification time:	15. 06. 2019 19:47

#	Program:	/corina/corina34_cracker 3.40 0067  02.08.2006

@<TRIPOS>MOLECULE
ASD01883886
  51   53    0    0    0
SMALL
NO_CHARGES


@<TRIPOS>ATOM
   1 C1            -0.0170     1.4009     0.0097 C.2     
   2 C2             0.0021    -0.0041     0.0020 C.2     
   3 C3            -1.2235    -0.6971     0.0105 C.2     
   4 C4            -2.3887    -0.0098     0.0258 C.2     
   5 N5            -2.4085     1.3474     0.0332 N.am    
   6 C6            -1.2693     2.0642     0.0312 C.2     
   7 C7            -3.6960     2.0462     0.0498 C.3     
   8 C8            -4.1298     2.2817     1.4980 C.3     
   9 C9            -5.4744     3.0115     1.5153 C.3     
  10 C10           -6.5523     2.1091     0.9115 C.3     
  11 C11           -5.8484     3.3576     2.9579 C.3     
  12 O12           -1.3147     3.2825     0.0383 O.2     
  13 C13            1.2048     2.1477     0.0021 C.1     
  14 N14            2.1741     2.7402    -0.0040 N.1     
  15 C15            1.2848    -0.7407    -0.0152 C.ar    
  16 C16            1.6499    -1.5380     1.0708 C.ar    
  17 C17            2.8475    -2.2223     1.0484 C.ar    
  18 C18            3.6861    -2.1196    -0.0473 C.ar    
  19 C19            3.3302    -1.3310    -1.1271 C.ar    
  20 C20            2.1327    -0.6461    -1.1199 C.ar    
  21 C21            4.9931    -2.8697    -0.0646 C.3     
  22 O22            4.7926    -4.1629    -0.6386 O.3     
  23 C23            5.8787    -4.9720    -0.7291 C.ar    
  24 C24            5.7744    -6.2489    -1.2751 C.ar    
  25 C25            6.9018    -7.0407    -1.3499 C.ar    
  26 N26            8.0667    -6.6016    -0.9122 N.ar    
  27 C27            8.2055    -5.3982    -0.3887 C.ar    
  28 C28            7.1270    -4.5442    -0.2836 C.ar    
  29 H29           -1.2334    -1.7771     0.0044 H       
  30 H30           -3.3225    -0.5523     0.0318 H       
  31 H31           -3.5958     3.0044    -0.4599 H       
  32 H32           -4.4449     1.4401    -0.4599 H       
  33 H33           -4.2300     1.3235     2.0077 H       
  34 H34           -3.3809     2.8878     2.0076 H       
  35 H35           -5.3980     3.9279     0.9299 H       
  36 H36           -6.6288     1.1928     1.4968 H       
  37 H37           -7.5103     2.6290     0.9238 H       
  38 H38           -6.2859     1.8625    -0.1163 H       
  39 H39           -5.0804     4.0005     3.3881 H       
  40 H40           -6.8063     3.8775     2.9703 H       
  41 H41           -5.9248     2.4413     3.5433 H       
  42 H42            0.9963    -1.6187     1.9268 H       
  43 H43            3.1313    -2.8393     1.8882 H       
  44 H44            3.9894    -1.2548    -1.9792 H       
  45 H45            1.8560    -0.0308    -1.9633 H       
  46 H46            5.7211    -2.3173    -0.6587 H       
  47 H47            5.3633    -2.9780     0.9548 H       
  48 H48            4.8239    -6.6145    -1.6348 H       
  49 H49            6.8300    -8.0324    -1.7715 H       
  50 H50            9.1763    -5.0764    -0.0417 H       
  51 H51            7.2474    -3.5605     0.1455 H       
@<TRIPOS>BOND
   1    1    2 2
   2    1   13 1
   3    1    6 1
   4    2    3 1
   5    2   15 1
   6    3    4 2
   7    3   29 1
   8    4    5 1
   9    4   30 1
  10    5    7 1
  11    5    6 am
  12    6   12 2
  13    7    8 1
  14    7   31 1
  15    7   32 1
  16    8    9 1
  17    8   33 1
  18    8   34 1
  19    9   10 1
  20    9   11 1
  21    9   35 1
  22   10   36 1
  23   10   37 1
  24   10   38 1
  25   11   39 1
  26   11   40 1
  27   11   41 1
  28   13   14 3
  29   15   16 ar
  30   15   20 ar
  31   16   17 ar
  32   16   42 1
  33   17   18 ar
  34   17   43 1
  35   18   19 ar
  36   18   21 1
  37   19   20 ar
  38   19   44 1
  39   20   45 1
  40   21   22 1
  41   21   46 1
  42   21   47 1
  43   22   23 1
  44   23   24 ar
  45   23   28 ar
  46   24   25 ar
  47   24   48 1
  48   25   26 ar
  49   25   49 1
  50   26   27 ar
  51   27   28 ar
  52   27   50 1
  53   28   51 1

#	End of record

