#	Name: ASD07030042
#	Creating user name:	WinNT
#	Creation time:	15. 06. 2019 21:08

#	Modifying user name:	WinNT
#	Modification time:	15. 06. 2019 21:08

#	Program:	/corina/corina34_cracker 3.40 0067  02.08.2006

@<TRIPOS>MOLECULE
ASD07030042
  33   33    0    0    0
SMALL
NO_CHARGES


@<TRIPOS>ATOM
   1 C1            -0.0168     1.3844     0.0097 C.ar    
   2 C2             0.0021    -0.0041     0.0020 C.ar    
   3 C3             1.2041    -0.6788    -0.0131 C.ar    
   4 C4             2.4033     0.0355    -0.0207 C.ar    
   5 C5             2.3802     1.4310    -0.0129 C.ar    
   6 C6             1.1741     2.0986     0.0021 C.ar    
   7 C7             3.6939    -0.6840    -0.0363 C.2     
   8 C8             4.8321    -0.0037    -0.0435 C.2     
   9 N9             6.1251    -0.7244    -0.0592 N.pl3   
  10 O10            6.1434    -1.9423    -0.0655 O.2     
  11 O11            7.1706    -0.0996    -0.0658 O.2     
  12 O12           -1.2035     2.0459     0.0189 O.3     
  13 C13           -1.1502     3.4738     0.0264 C.3     
  14 O14           -0.7901     3.9439    -1.2742 O.3     
  15 C15           -1.8456     3.8634    -2.2341 C.3     
  16 C16           -1.3501     4.3903    -3.5824 C.3     
  17 O17           -0.3207     3.5329    -4.0796 O.3     
  18 C18            0.2140     3.9380    -5.3414 C.3     
  19 H19           -0.9262    -0.5560     0.0083 H       
  20 H20            1.2180    -1.7587    -0.0186 H       
  21 H21            3.3059     1.9872    -0.0184 H       
  22 H22            1.1554     3.1784     0.0077 H       
  23 H23            3.7102    -1.7638    -0.0419 H       
  24 H24            4.8158     1.0761    -0.0379 H       
  25 H25           -2.1273     3.8725     0.2991 H       
  26 H26           -0.4071     3.8059     0.7513 H       
  27 H27           -2.1595     2.8253    -2.3429 H       
  28 H28           -2.6899     4.4649    -1.8971 H       
  29 H29           -2.1783     4.4121    -4.2906 H       
  30 H30           -0.9540     5.3978    -3.4554 H       
  31 H31           -0.5818     3.9504    -6.0861 H       
  32 H32            0.6426     4.9361    -5.2509 H       
  33 H33            0.9891     3.2363    -5.6496 H       
@<TRIPOS>BOND
   1    1    2 ar
   2    1    6 ar
   3    1   12 1
   4    2    3 ar
   5    2   19 1
   6    3    4 ar
   7    3   20 1
   8    4    5 ar
   9    4    7 1
  10    5    6 ar
  11    5   21 1
  12    6   22 1
  13    7    8 2
  14    7   23 1
  15    8    9 1
  16    8   24 1
  17    9   10 2
  18    9   11 2
  19   12   13 1
  20   13   14 1
  21   13   25 1
  22   13   26 1
  23   14   15 1
  24   15   16 1
  25   15   27 1
  26   15   28 1
  27   16   17 1
  28   16   29 1
  29   16   30 1
  30   17   18 1
  31   18   31 1
  32   18   32 1
  33   18   33 1

#	End of record

