#	Name: ASD08070107
#	Creating user name:	WinNT
#	Creation time:	15. 06. 2019 21:14

#	Modifying user name:	WinNT
#	Modification time:	15. 06. 2019 21:14

#	Program:	/corina/corina34_cracker 3.40 0067  02.08.2006

@<TRIPOS>MOLECULE
ASD08070107
  47   49    0    0    0
SMALL
NO_CHARGES


@<TRIPOS>ATOM
   1 C1            -0.0054     1.3846    -0.1527 C.ar    
   2 C2            -0.0075     0.0559     0.2374 C.ar    
   3 C3             1.1852     2.0398    -0.3971 C.ar    
   4 C4             2.3937     1.3651    -0.2523 C.ar    
   5 C5             2.3927     0.0154     0.1440 C.ar    
   6 C6             1.1803    -0.6299     0.3868 C.ar    
   7 C7             3.6738     2.0641    -0.5144 C.ar    
   8 C8             4.5573     1.5703    -1.4735 C.ar    
   9 C9             3.9969     3.2214     0.1929 C.ar    
  10 C10            5.1904     3.8680    -0.0555 C.ar    
  11 C11            6.0655     3.3701    -1.0042 C.ar    
  12 C12            5.7478     2.2255    -1.7132 C.ar    
  13 C13            3.6668    -0.7135     0.3012 C.2     
  14 O14            4.7230    -0.1184     0.2092 O.2     
  15 N15            3.6592    -2.0387     0.5469 N.am    
  16 C16            4.9235    -2.7620     0.7030 C.3     
  17 C17            4.6398    -4.2181     0.9681 C.ar    
  18 C18            4.6938    -4.7080     2.2588 C.ar    
  19 C19            4.3189    -5.0648    -0.0838 C.ar    
  20 C20            4.0580    -6.4040     0.1607 C.ar    
  21 C21            4.1184    -6.8944     1.4562 C.ar    
  22 C22            4.4341    -6.0428     2.5052 C.ar    
  23 O23            3.8627    -8.2068     1.6992 O.3     
  24 C24            3.9432    -8.6428     3.0577 C.3     
  25 O25            4.2600    -4.5811    -1.3524 O.3     
  26 C26            3.9237    -5.5092    -2.3856 C.3     
  27 H27           -0.9413     1.9105    -0.2709 H       
  28 H28           -0.9447    -0.4465     0.4262 H       
  29 H29            1.1785     3.0761    -0.7010 H       
  30 H30            1.1714    -1.6659     0.6917 H       
  31 H31            4.3105     0.6766    -2.0274 H       
  32 H32            3.3143     3.6112     0.9335 H       
  33 H33            5.4416     4.7647     0.4915 H       
  34 H34            6.9985     3.8795    -1.1952 H       
  35 H35            6.4351     1.8412    -2.4524 H       
  36 H36            2.8165    -2.5135     0.6203 H       
  37 H37            5.5117    -2.6668    -0.2098 H       
  38 H38            5.4814    -2.3423     1.5401 H       
  39 H39            4.9398    -4.0467     3.0765 H       
  40 H40            3.8077    -7.0643    -0.6564 H       
  41 H41            4.4817    -6.4243     3.5144 H       
  42 H42            4.9494    -8.4653     3.4372 H       
  43 H43            3.2243    -8.0878     3.6606 H       
  44 H44            3.7171    -9.7077     3.1115 H       
  45 H45            4.6642    -6.3086    -2.4111 H       
  46 H46            2.9389    -5.9323    -2.1875 H       
  47 H47            3.9115    -4.9946    -3.3464 H       
@<TRIPOS>BOND
   1    1    2 ar
   2    1    3 ar
   3    1   27 1
   4    2    6 ar
   5    2   28 1
   6    3    4 ar
   7    3   29 1
   8    4    5 ar
   9    4    7 1
  10    5    6 ar
  11    5   13 1
  12    6   30 1
  13    7    8 ar
  14    7    9 ar
  15    8   12 ar
  16    8   31 1
  17    9   10 ar
  18    9   32 1
  19   10   11 ar
  20   10   33 1
  21   11   12 ar
  22   11   34 1
  23   12   35 1
  24   13   14 2
  25   13   15 am
  26   15   16 1
  27   15   36 1
  28   16   17 1
  29   16   37 1
  30   16   38 1
  31   17   18 ar
  32   17   19 ar
  33   18   22 ar
  34   18   39 1
  35   19   20 ar
  36   19   25 1
  37   20   21 ar
  38   20   40 1
  39   21   22 ar
  40   21   23 1
  41   22   41 1
  42   23   24 1
  43   24   42 1
  44   24   43 1
  45   24   44 1
  46   25   26 1
  47   26   45 1
  48   26   46 1
  49   26   47 1

#	End of record

