#	Name: ASD03320007
#	Creating user name:	WinNT
#	Creation time:	15. 06. 2019 20:35

#	Modifying user name:	WinNT
#	Modification time:	15. 06. 2019 20:35

#	Program:	/corina/corina34_cracker 3.40 0067  02.08.2006

@<TRIPOS>MOLECULE
ASD03320007
  47   49    0    0    0
SMALL
NO_CHARGES


@<TRIPOS>ATOM
   1 O1             0.0655     1.2524    -0.0677 O.3     
   2 C2             0.0674    -0.1765    -0.0861 C.3     
   3 C3            -1.3741    -0.6887    -0.0661 C.3     
   4 N4            -2.0526    -0.2861    -1.3006 N.am    
   5 C5            -3.3400    -0.6288    -1.5045 C.2     
   6 O6            -3.9382    -1.2719    -0.6642 O.2     
   7 C7            -4.0247    -0.2225    -2.7505 C.ar    
   8 C8            -3.3392     0.5162    -3.7169 C.ar    
   9 C9            -3.9783     0.8962    -4.8802 C.ar    
  10 C10           -5.2975     0.5484    -5.0955 C.ar    
  11 C11           -5.9930    -0.1898    -4.1379 C.ar    
  12 C12           -5.3544    -0.5809    -2.9657 C.ar    
  13 C13           -7.4099    -0.5619    -4.3717 C.ar    
  14 N14           -8.1129    -1.1805    -3.4222 N.ar    
  15 C15           -9.3708    -1.5142    -3.6219 C.ar    
  16 N16           -9.9895    -1.2563    -4.7564 N.ar    
  17 C17           -9.3593    -0.6419    -5.7547 C.ar    
  18 C18           -8.0279    -0.2656    -5.5841 C.ar    
  19 N19          -10.0189    -0.3754    -6.9448 N.pl3   
  20 C20          -11.3133    -0.8667    -7.1531 C.ar    
  21 C21          -12.2274    -0.1256    -7.8904 C.ar    
  22 C22          -13.5038    -0.6111    -8.0957 C.ar    
  23 C23          -13.8729    -1.8387    -7.5657 C.ar    
  24 C24          -12.9606    -2.5794    -6.8287 C.ar    
  25 C25          -11.6820    -2.0980    -6.6273 C.ar    
  26 O26          -15.1300    -2.3160    -7.7684 O.3     
  27 C27          -15.4419    -3.5868    -7.1939 C.3     
  28 F28          -15.2835    -3.5224    -5.8054 F       
  29 F29          -16.7654    -3.9235    -7.4972 F       
  30 F30          -14.5819    -4.5586    -7.7168 F       
  31 H31            0.9483     1.6471    -0.0789 H       
  32 H32            0.5653    -0.5276    -0.9899 H       
  33 H33            0.5980    -0.5504     0.7896 H       
  34 H34           -1.3723    -1.7760     0.0095 H       
  35 H35           -1.8982    -0.2657     0.7910 H       
  36 H36           -1.5752     0.2270    -1.9711 H       
  37 H37           -2.3075     0.7910    -3.5540 H       
  38 H38           -3.4446     1.4681    -5.6248 H       
  39 H39           -5.7918     0.8490    -6.0075 H       
  40 H40           -5.8891    -1.1528    -2.2218 H       
  41 H41           -9.9117    -2.0145    -2.8323 H       
  42 H42           -7.4876     0.2346    -6.3742 H       
  43 H43           -9.5835     0.1514    -7.6332 H       
  44 H44          -11.9403     0.8304    -8.3028 H       
  45 H45          -14.2149    -0.0347    -8.6688 H       
  46 H46          -13.2489    -3.5349    -6.4161 H       
  47 H47          -10.9718    -2.6748    -6.0535 H       
@<TRIPOS>BOND
   1    1    2 1
   2    1   31 1
   3    2    3 1
   4    2   32 1
   5    2   33 1
   6    3    4 1
   7    3   34 1
   8    3   35 1
   9    4    5 am
  10    4   36 1
  11    5    6 2
  12    5    7 1
  13    7    8 ar
  14    7   12 ar
  15    8    9 ar
  16    8   37 1
  17    9   10 ar
  18    9   38 1
  19   10   11 ar
  20   10   39 1
  21   11   12 ar
  22   11   13 1
  23   12   40 1
  24   13   14 ar
  25   13   18 ar
  26   14   15 ar
  27   15   16 ar
  28   15   41 1
  29   16   17 ar
  30   17   18 ar
  31   17   19 1
  32   18   42 1
  33   19   20 1
  34   19   43 1
  35   20   21 ar
  36   20   25 ar
  37   21   22 ar
  38   21   44 1
  39   22   23 ar
  40   22   45 1
  41   23   24 ar
  42   23   26 1
  43   24   25 ar
  44   24   46 1
  45   25   47 1
  46   26   27 1
  47   27   28 1
  48   27   29 1
  49   27   30 1

#	End of record

