#	Name: ASD01812700
#	Creating user name:	WinNT
#	Creation time:	15. 06. 2019 19:29

#	Modifying user name:	WinNT
#	Modification time:	15. 06. 2019 19:29

#	Program:	/corina/corina34_cracker 3.40 0067  02.08.2006

@<TRIPOS>MOLECULE
ASD01812700
  55   59    0    0    0
SMALL
NO_CHARGES


@<TRIPOS>ATOM
   1 O1            -0.0163     1.3522     0.0095 O.3     
   2 C2             0.0021    -0.0041     0.0020 C.ar    
   3 C3             1.2105    -0.6847    -0.0132 C.ar    
   4 C4             1.2312    -2.0655    -0.0203 C.ar    
   5 C5             0.0448    -2.7828    -0.0124 C.ar    
   6 C6            -1.1604    -2.1223     0.0023 C.ar    
   7 C7            -1.2004    -0.7252     0.0155 C.ar    
   8 C8            -2.5947    -2.5891     0.0133 C.3     
   9 N9            -3.4200    -1.3759     0.0272 N.am    
  10 C10           -2.6104    -0.3028     0.0376 C.2     
  11 C11           -4.8845    -1.3401     0.0406 C.3     
  12 O12           -2.9891     0.8526     0.0493 O.2     
  13 C13           -5.3738    -1.3353     1.4660 C.ar    
  14 C14           -5.5682    -0.1342     2.1237 C.ar    
  15 C15           -6.0166    -0.1241     3.4291 C.ar    
  16 C16           -6.2734    -1.3264     4.0840 C.ar    
  17 C17           -6.0760    -2.5332     3.4169 C.ar    
  18 C18           -5.6323    -2.5318     2.1099 C.ar    
  19 C19           -6.7555    -1.3216     5.4883 C.2     
  20 C20           -7.8668    -2.0272     5.9892 C.2     
  21 N21           -7.9688    -1.7702     7.2663 N.2     
  22 N22           -6.9354    -0.8977     7.6285 N.pl3   
  23 C23           -6.1990    -0.6377     6.5295 C.2     
  24 C24           -6.6930    -0.3638     8.9710 C.3     
  25 C25           -8.7796    -2.9222     5.1912 C.3     
  26 C26            1.1734     2.0057     0.0016 C.ar    
  27 C27            1.7788     2.3511    -1.2138 C.ar    
  28 C28            3.0035     3.0242    -1.2092 C.ar    
  29 C29            3.6081     3.3441    -0.0129 C.ar    
  30 C30            3.0080     3.0013     1.1876 C.ar    
  31 C31            1.7936     2.3402     1.1983 C.ar    
  32 F32            1.2126     2.0146     2.3738 F       
  33 C33            1.1463     2.0158    -2.4540 C.1     
  34 N34            0.6445     1.7497    -3.4379 N.1     
  35 H35            2.1387    -0.1327    -0.0198 H       
  36 H36            2.1758    -2.5889    -0.0325 H       
  37 H37            0.0677    -3.8626    -0.0180 H       
  38 H38           -2.8049    -3.1752    -0.8813 H       
  39 H39           -2.7882    -3.1842     0.9058 H       
  40 H40           -5.2306    -0.4389    -0.4654 H       
  41 H41           -5.2741    -2.2183    -0.4743 H       
  42 H42           -5.3684     0.7974     1.6152 H       
  43 H43           -6.1678     0.8143     3.9419 H       
  44 H44           -6.2736    -3.4682     3.9201 H       
  45 H45           -5.4828    -3.4668     1.5904 H       
  46 H46           -5.3279    -0.0011     6.4814 H       
  47 H47           -6.0276    -1.0349     9.5142 H       
  48 H48           -6.2314     0.6205     8.8927 H       
  49 H49           -7.6395    -0.2798     9.5050 H       
  50 H50           -8.3947    -3.9419     5.2085 H       
  51 H51           -9.7786    -2.9035     5.6267 H       
  52 H52           -8.8255    -2.5687     4.1611 H       
  53 H53            3.4759     3.2932    -2.1424 H       
  54 H54            4.5545     3.8644    -0.0113 H       
  55 H55            3.4893     3.2553     2.1204 H       
@<TRIPOS>BOND
   1    1    2 1
   2    1   26 1
   3    2    3 ar
   4    2    7 ar
   5    3    4 ar
   6    3   35 1
   7    4    5 ar
   8    4   36 1
   9    5    6 ar
  10    5   37 1
  11    6    8 1
  12    6    7 ar
  13    7   10 1
  14    8    9 1
  15    8   38 1
  16    8   39 1
  17    9   10 am
  18    9   11 1
  19   10   12 2
  20   11   13 1
  21   11   40 1
  22   11   41 1
  23   13   14 ar
  24   13   18 ar
  25   14   15 ar
  26   14   42 1
  27   15   16 ar
  28   15   43 1
  29   16   17 ar
  30   16   19 1
  31   17   18 ar
  32   17   44 1
  33   18   45 1
  34   19   20 1
  35   19   23 2
  36   20   21 2
  37   20   25 1
  38   21   22 1
  39   22   23 1
  40   22   24 1
  41   23   46 1
  42   24   47 1
  43   24   48 1
  44   24   49 1
  45   25   50 1
  46   25   51 1
  47   25   52 1
  48   26   27 ar
  49   26   31 ar
  50   27   33 1
  51   27   28 ar
  52   28   29 ar
  53   28   53 1
  54   29   30 ar
  55   29   54 1
  56   30   31 ar
  57   30   55 1
  58   31   32 1
  59   33   34 3

#	End of record

