#	Name: ASD01815896
#	Creating user name:	WinNT
#	Creation time:	15. 06. 2019 19:34

#	Modifying user name:	WinNT
#	Modification time:	15. 06. 2019 19:34

#	Program:	/corina/corina34_cracker 3.40 0067  02.08.2006

@<TRIPOS>MOLECULE
ASD01815896
  60   65    0    0    0
SMALL
NO_CHARGES


@<TRIPOS>ATOM
   1 C1             0.1064     1.4783     0.3814 C.ar    
   2 C2             0.0862     0.0932     0.3727 C.ar    
   3 C3             1.2565    -0.6271     0.2339 C.ar    
   4 C4             2.4729     0.0371     0.1005 C.ar    
   5 C5             2.4904     1.4412     0.1092 C.ar    
   6 C6             1.3032     2.1568     0.2504 C.ar    
   7 N7             3.6499    -0.6796    -0.0385 N.pl3   
   8 C8             4.8507    -0.0941    -0.1703 C.2     
   9 C9             4.9913     1.2715    -0.1763 C.2     
  10 C10            3.7896     2.1248    -0.0335 C.2     
  11 C11            6.1080     2.2037    -0.2969 C.2     
  12 N12            5.5736     3.4421    -0.2278 N.am    
  13 N13            4.1875     3.3643    -0.0704 N.2     
  14 C14            6.3008     4.6281    -0.3023 C.ar    
  15 O15            7.2870     1.9211    -0.4328 O.2     
  16 C16            3.5813    -2.1429    -0.0413 C.3     
  17 C17            3.4350    -2.6362    -1.4578 C.ar    
  18 C18            4.5546    -2.7854    -2.2556 C.ar    
  19 C19            4.4236    -3.2368    -3.5543 C.ar    
  20 C20            3.1663    -3.5414    -4.0584 C.ar    
  21 C21            2.0442    -3.3911    -3.2548 C.ar    
  22 C22            2.1821    -2.9442    -1.9552 C.ar    
  23 N23            3.0302    -3.9994    -5.3763 N.pl3   
  24 C24            1.8704    -4.3298    -5.9882 C.2     
  25 F25            1.3218     3.5077     0.2581 F       
  26 F26            1.2209    -1.9776     0.2281 F       
  27 C27            2.1672    -4.7220    -7.2489 C.2     
  28 C28            3.5535    -4.6287    -7.4139 C.2     
  29 N29            4.0708    -4.1901    -6.2946 N.2     
  30 C30            6.1927     5.5870     0.7169 C.ar    
  31 C31            7.1407     4.8650    -1.3825 C.ar    
  32 C32            7.7522     6.9917    -0.4521 C.ar    
  33 C33            6.9281     6.7721     0.6300 C.ar    
  34 C34            7.8606     6.0403    -1.4541 C.ar    
  35 C35            5.3088     5.3458     1.8713 C.2     
  36 O36            4.6708     4.3141     1.9428 O.2     
  37 O37            5.2082     6.2693     2.8475 O.3     
  38 C38            4.3358     7.1214     4.9554 C.3     
  39 C39            4.3188     5.9646     3.9541 C.3     
  40 H40           -0.8163     2.0296     0.4865 H       
  41 H41           -0.8538    -0.4285     0.4757 H       
  42 H42            5.7293    -0.7136    -0.2740 H       
  43 H43            4.4944    -2.5503     0.3928 H       
  44 H44            2.7231    -2.4676     0.5469 H       
  45 H45            5.5323    -2.5483    -1.8629 H       
  46 H46            5.2983    -3.3524    -4.1772 H       
  47 H47            1.0649    -3.6269    -3.6443 H       
  48 H48            1.3096    -2.8270    -1.3296 H       
  49 H49            0.8844    -4.2886    -5.5494 H       
  50 H50            1.4590    -5.0493    -7.9957 H       
  51 H51            4.1018    -4.8722    -8.3119 H       
  52 H52            7.2310     4.1285    -2.1673 H       
  53 H53            8.3197     7.9083    -0.5179 H       
  54 H54            6.8473     7.5168     1.4081 H       
  55 H55            8.5124     6.2199    -2.2962 H       
  56 H56            5.3492     7.2614     5.3316 H       
  57 H57            4.0021     8.0341     4.4618 H       
  58 H58            3.6681     6.8926     5.7861 H       
  59 H59            3.3055     5.8246     3.5778 H       
  60 H60            4.6525     5.0519     4.4477 H       
@<TRIPOS>BOND
   1    1    2 ar
   2    1    6 ar
   3    1   40 1
   4    2    3 ar
   5    2   41 1
   6    3    4 ar
   7    3   26 1
   8    4    5 ar
   9    4    7 1
  10    5    6 ar
  11    5   10 1
  12    6   25 1
  13    7    8 1
  14    7   16 1
  15    8    9 2
  16    8   42 1
  17    9   10 1
  18    9   11 1
  19   10   13 2
  20   11   12 am
  21   11   15 2
  22   12   13 1
  23   12   14 1
  24   14   30 ar
  25   14   31 ar
  26   16   17 1
  27   16   43 1
  28   16   44 1
  29   17   18 ar
  30   17   22 ar
  31   18   19 ar
  32   18   45 1
  33   19   20 ar
  34   19   46 1
  35   20   21 ar
  36   20   23 1
  37   21   22 ar
  38   21   47 1
  39   22   48 1
  40   23   24 1
  41   23   29 1
  42   24   27 2
  43   24   49 1
  44   27   28 1
  45   27   50 1
  46   28   29 2
  47   28   51 1
  48   30   35 1
  49   30   33 ar
  50   31   34 ar
  51   31   52 1
  52   32   33 ar
  53   32   34 ar
  54   32   53 1
  55   33   54 1
  56   34   55 1
  57   35   36 2
  58   35   37 1
  59   37   39 1
  60   38   39 1
  61   38   56 1
  62   38   57 1
  63   38   58 1
  64   39   59 1
  65   39   60 1

#	End of record

