#	Name: ASD03731812
#	Creating user name:	WinNT
#	Creation time:	15. 06. 2019 20:46

#	Modifying user name:	WinNT
#	Modification time:	15. 06. 2019 20:46

#	Program:	/corina/corina34_cracker 3.40 0067  02.08.2006

@<TRIPOS>MOLECULE
ASD03731812
  37   38    0    0    0
SMALL
NO_CHARGES


@<TRIPOS>ATOM
   1 C1             0.1241     1.4715    -0.0154 C.2     
   2 C2             0.1066    -0.0047    -0.0179 C.ar    
   3 C3             1.2949    -0.7154    -0.1774 C.ar    
   4 C4             1.2727    -2.1078    -0.1785 C.ar    
   5 C5             0.0531    -2.7855    -0.0188 C.ar    
   6 C6            -1.1248    -2.0671     0.1394 C.ar    
   7 C7            -1.1019    -0.6902     0.1458 C.ar    
   8 O8             1.1750     2.0673    -0.1526 O.2     
   9 N9            -1.0257     2.1588     0.1333 N.am    
  10 S10           -1.0061     3.8147     0.1360 S.o2    
  11 O11           -2.3645     4.1809     0.3363 O.2     
  12 O12           -0.0082     4.1518     1.0899 O.2     
  13 C13           -0.4657     4.2637    -1.5363 C.3     
  14 O14            0.0255    -4.1404    -0.0195 O.3     
  15 C15            0.2483    -4.7836     1.1565 C.ar    
  16 C16            0.1674    -6.1677     1.2181 C.ar    
  17 C17            0.3942    -6.8190     2.4147 C.ar    
  18 C18            0.7013    -6.0932     3.5510 C.ar    
  19 C19            0.7822    -4.7143     3.4926 C.ar    
  20 C20            0.5627    -4.0583     2.2966 C.ar    
  21 C21           -0.1682    -6.9593    -0.0196 C.3     
  22 C22            2.4889    -2.8458    -0.3423 C.1     
  23 N23            3.4537    -3.4313    -0.4723 N.1     
  24 H24            2.2294    -0.1881    -0.3001 H       
  25 H25           -2.0617    -2.5902     0.2617 H       
  26 H26           -2.0208    -0.1375     0.2737 H       
  27 H27           -1.8647     1.6835     0.2387 H       
  28 H28           -1.1719     3.8663    -2.2654 H       
  29 H29           -0.4238     5.3493    -1.6254 H       
  30 H30            0.5233     3.8454    -1.7232 H       
  31 H31            0.3313    -7.8961     2.4631 H       
  32 H32            0.8780    -6.6043     4.4858 H       
  33 H33            1.0215    -4.1497     4.3816 H       
  34 H34            0.6310    -2.9814     2.2504 H       
  35 H35            0.7507    -7.2187    -0.5453 H       
  36 H36           -0.6945    -7.8708     0.2637 H       
  37 H37           -0.8037    -6.3609    -0.6724 H       
@<TRIPOS>BOND
   1    1    2 1
   2    1    8 2
   3    1    9 am
   4    2    3 ar
   5    2    7 ar
   6    3    4 ar
   7    3   24 1
   8    4    5 ar
   9    4   22 1
  10    5    6 ar
  11    5   14 1
  12    6    7 ar
  13    6   25 1
  14    7   26 1
  15    9   10 am
  16    9   27 1
  17   10   11 2
  18   10   12 2
  19   10   13 1
  20   13   28 1
  21   13   29 1
  22   13   30 1
  23   14   15 1
  24   15   16 ar
  25   15   20 ar
  26   16   17 ar
  27   16   21 1
  28   17   18 ar
  29   17   31 1
  30   18   19 ar
  31   18   32 1
  32   19   20 ar
  33   19   33 1
  34   20   34 1
  35   21   35 1
  36   21   36 1
  37   21   37 1
  38   22   23 3

#	End of record

