#	Name: ASD01230177
#	Creating user name:	WinNT
#	Creation time:	15. 06. 2019 19:11

#	Modifying user name:	WinNT
#	Modification time:	15. 06. 2019 19:11

#	Program:	/corina/corina34_cracker 3.40 0067  02.08.2006

@<TRIPOS>MOLECULE
ASD01230177
  34   36    0    0    0
SMALL
NO_CHARGES


@<TRIPOS>ATOM
   1 C1            -1.1500     1.3560    -1.1973 C.ar    
   2 C2            -1.2752    -0.0342    -1.1646 C.ar    
   3 C3            -1.5184    -0.7155    -2.3480 C.ar    
   4 C4            -1.6279     0.0171    -3.5228 C.ar    
   5 C5            -1.4928     1.3896    -3.4796 C.ar    
   6 N6            -1.2615     2.0140    -2.3393 N.ar    
   7 N7            -0.9116     2.0557    -0.0176 N.pl3   
   8 O8            -1.1601    -0.7101     0.0097 O.3     
   9 C9            -2.3694    -2.7281     0.1134 C.ar    
  10 C10           -1.1818    -2.0679    -0.0311 C.ar    
  11 C11            0.0115    -2.7718    -0.2209 C.ar    
  12 C12            0.0216    -4.1312    -0.2667 C.ar    
  13 C13           -1.1815    -4.8430    -0.1213 C.ar    
  14 C14           -1.2050    -6.2479    -0.1639 C.ar    
  15 C15           -2.3854    -6.9078    -0.0199 C.ar    
  16 C16           -3.5815    -6.2086     0.1703 C.ar    
  17 C17           -3.5955    -4.8438     0.2164 C.ar    
  18 C18           -2.3929    -4.1317     0.0719 C.ar    
  19 O19           -4.7452    -6.8962     0.3106 O.3     
  20 C20           -4.6672    -8.3219     0.2531 C.3     
  21 H21           -1.6199    -1.7907    -2.3558 H       
  22 H22           -1.8166    -0.4828    -4.4614 H       
  23 H23           -1.5775     1.9616    -4.3918 H       
  24 H24           -0.8331     1.5775     0.8226 H       
  25 H25           -0.8239     3.0216    -0.0359 H       
  26 H26           -3.2840    -2.1738     0.2636 H       
  27 H27            0.9381    -2.2285    -0.3330 H       
  28 H28            0.9507    -4.6616    -0.4146 H       
  29 H29           -0.2892    -6.8012    -0.3109 H       
  30 H30           -2.3993    -7.9872    -0.0533 H       
  31 H31           -4.5255    -4.3148     0.3634 H       
  32 H32           -5.6636    -8.7456     0.3787 H       
  33 H33           -4.2626    -8.6250    -0.7125 H       
  34 H34           -4.0161    -8.6826     1.0494 H       
@<TRIPOS>BOND
   1    1    2 ar
   2    1    6 ar
   3    1    7 1
   4    2    3 ar
   5    2    8 1
   6    3    4 ar
   7    3   21 1
   8    4    5 ar
   9    4   22 1
  10    5    6 ar
  11    5   23 1
  12    7   24 1
  13    7   25 1
  14    8   10 1
  15    9   10 ar
  16    9   18 ar
  17    9   26 1
  18   10   11 ar
  19   11   12 ar
  20   11   27 1
  21   12   13 ar
  22   12   28 1
  23   13   14 ar
  24   13   18 ar
  25   14   15 ar
  26   14   29 1
  27   15   16 ar
  28   15   30 1
  29   16   17 ar
  30   16   19 1
  31   17   18 ar
  32   17   31 1
  33   19   20 1
  34   20   32 1
  35   20   33 1
  36   20   34 1

#	End of record

