#	Name: ASD09116422
#	Creating user name:	WinNT
#	Creation time:	15. 06. 2019 21:21

#	Modifying user name:	WinNT
#	Modification time:	15. 06. 2019 21:21

#	Program:	/corina/corina34_cracker 3.40 0067  02.08.2006

@<TRIPOS>MOLECULE
ASD09116422
  78   84    0    0    0
SMALL
NO_CHARGES


@<TRIPOS>ATOM
   1 N1            -0.0448     1.4792    -0.3091 N.2     
   2 N2            -0.0649     0.1743    -0.8273 N.pl3   
   3 C3             1.2073     1.8696    -0.3035 C.2     
   4 N4             1.9733     0.8851    -0.7881 N.2     
   5 C5             1.2201    -0.1451    -1.1088 C.2     
   6 N6             1.6628    -1.3418    -1.6398 N.pl3   
   7 C7            -1.1878    -0.6338    -1.0147 C.ar    
   8 N8             1.6665     3.1110     0.1363 N.pl3   
   9 C9             3.0427     3.3664     0.2002 C.ar    
  10 C10            3.5367     4.6564     0.0285 C.ar    
  11 C11            3.9480     2.3373     0.4425 C.ar    
  12 N12            5.2399     2.6161     0.4964 N.ar    
  13 C13            5.6744     3.8551     0.3232 C.ar    
  14 N14            4.8421     4.8598     0.0959 N.ar    
  15 N15           -1.1672    -1.5954    -1.9255 N.ar    
  16 N16           -2.1770    -2.3602    -2.1444 N.ar    
  17 C17           -3.3063    -2.2293    -1.4670 C.ar    
  18 C18           -3.4129    -1.2549    -0.4705 C.ar    
  19 C19           -2.3312    -0.4321    -0.2375 C.ar    
  20 C20           -4.4893    -3.0732    -1.7543 C.ar    
  21 C21           -5.7289    -2.4579    -1.9353 C.ar    
  22 C22           -5.8214    -0.9573    -1.8899 C.3     
  23 C23           -5.7687    -0.4393    -0.4552 C.3     
  24 C24           -4.6742    -1.1499     0.3365 C.3     
  25 C25           -4.3801    -4.4567    -1.8404 C.ar    
  26 C26           -5.5066    -5.2175    -2.0867 C.ar    
  27 C27           -6.7368    -4.6054    -2.2449 C.ar    
  28 C28           -6.8482    -3.2278    -2.1684 C.ar    
  29 N29            7.0365     4.1080     0.3868 N.3     
  30 C30            7.3178     5.5330     0.1706 C.3     
  31 C31            7.7724     3.2705    -0.5688 C.3     
  32 C32            9.2768     3.4691    -0.3703 C.3     
  33 C33            9.6243     4.9451    -0.5833 C.3     
  34 C34            8.8086     5.7992     0.3913 C.3     
  35 C35           11.1170     5.1611    -0.3265 C.3     
  36 N36           11.8985     4.3799    -1.2945 N.3     
  37 C37           13.3360     4.6368    -1.1399 C.3     
  38 C38           14.1244     3.7024    -2.0604 C.3     
  39 C39           13.6971     3.9428    -3.5110 C.3     
  40 C40           12.1879     3.7156    -3.6345 C.3     
  41 C41           11.4556     4.6497    -2.6684 C.3     
  42 H42            2.6084    -1.4774    -1.8080 H       
  43 H43            1.0278    -2.0460    -1.8442 H       
  44 H44            1.0332     3.7975     0.3980 H       
  45 H45            2.8634     5.4800    -0.1575 H       
  46 H46            3.6002     1.3248     0.5850 H       
  47 H47           -2.3693     0.3447     0.5119 H       
  48 H48           -4.9911    -0.5317    -2.4534 H       
  49 H49           -6.7595    -0.6439    -2.3480 H       
  50 H50           -5.5650     0.6314    -0.4675 H       
  51 H51           -6.7310    -0.6153     0.0254 H       
  52 H52           -5.0152    -2.1510     0.6004 H       
  53 H53           -4.4704    -0.5894     1.2488 H       
  54 H54           -3.4195    -4.9342    -1.7149 H       
  55 H55           -5.4265    -6.2922    -2.1563 H       
  56 H56           -7.6154    -5.2057    -2.4291 H       
  57 H57           -7.8120    -2.7563    -2.2916 H       
  58 H58            7.0472     5.8059    -0.8494 H       
  59 H59            6.7346     6.1289     0.8727 H       
  60 H60            7.5195     2.2231    -0.4038 H       
  61 H61            7.4997     3.5540    -1.5854 H       
  62 H62            9.5525     3.1728     0.6418 H       
  63 H63            9.8226     2.8592    -1.0901 H       
  64 H64            9.3847     5.2316    -1.6073 H       
  65 H65            9.0198     6.8539     0.2154 H       
  66 H66            9.0770     5.5394     1.4153 H       
  67 H67           11.3553     6.2191    -0.4366 H       
  68 H68           11.3624     4.8368     0.6847 H       
  69 H69           13.5503     5.6725    -1.4039 H       
  70 H70           13.6277     4.4582    -0.1050 H       
  71 H71           15.1906     3.9041    -1.9570 H       
  72 H72           13.9213     2.6667    -1.7881 H       
  73 H73           13.9357     4.9674    -3.7960 H       
  74 H74           14.2246     3.2492    -4.1658 H       
  75 H75           11.8704     3.9267    -4.6556 H       
  76 H76           11.9542     2.6801    -3.3869 H       
  77 H77           10.3815     4.4804    -2.7435 H       
  78 H78           11.6787     5.6852    -2.9252 H       
@<TRIPOS>BOND
   1    1    2 1
   2    1    3 2
   3    2    7 1
   4    2    5 1
   5    3    4 1
   6    3    8 1
   7    4    5 2
   8    5    6 1
   9    6   42 1
  10    6   43 1
  11    7   15 ar
  12    7   19 ar
  13    8    9 1
  14    8   44 1
  15    9   10 ar
  16    9   11 ar
  17   10   14 ar
  18   10   45 1
  19   11   12 ar
  20   11   46 1
  21   12   13 ar
  22   13   14 ar
  23   13   29 1
  24   15   16 ar
  25   16   17 ar
  26   17   18 ar
  27   17   20 1
  28   18   19 ar
  29   18   24 1
  30   19   47 1
  31   20   21 ar
  32   20   25 ar
  33   21   22 1
  34   21   28 ar
  35   22   23 1
  36   22   48 1
  37   22   49 1
  38   23   24 1
  39   23   50 1
  40   23   51 1
  41   24   52 1
  42   24   53 1
  43   25   26 ar
  44   25   54 1
  45   26   27 ar
  46   26   55 1
  47   27   28 ar
  48   27   56 1
  49   28   57 1
  50   29   30 1
  51   29   31 1
  52   30   34 1
  53   30   58 1
  54   30   59 1
  55   31   32 1
  56   31   60 1
  57   31   61 1
  58   32   33 1
  59   32   62 1
  60   32   63 1
  61   33   34 1
  62   33   35 1
  63   33   64 1
  64   34   65 1
  65   34   66 1
  66   35   36 1
  67   35   67 1
  68   35   68 1
  69   36   37 1
  70   36   41 1
  71   37   38 1
  72   37   69 1
  73   37   70 1
  74   38   39 1
  75   38   71 1
  76   38   72 1
  77   39   40 1
  78   39   73 1
  79   39   74 1
  80   40   41 1
  81   40   75 1
  82   40   76 1
  83   41   77 1
  84   41   78 1

#	End of record

