#	Name: ASD08170218
#	Creating user name:	WinNT
#	Creation time:	15. 06. 2019 21:17

#	Modifying user name:	WinNT
#	Modification time:	15. 06. 2019 21:17

#	Program:	/corina/corina34_cracker 3.40 0067  02.08.2006

@<TRIPOS>MOLECULE
ASD08170218
  64   69    0    0    0
SMALL
NO_CHARGES


@<TRIPOS>ATOM
   1 N1            -0.0150     1.2583     0.0090 N.2     
   2 N2             0.0021    -0.0041     0.0020 N.2     
   3 C3             1.1271     1.8769     0.0014 C.2     
   4 S4             2.3826     0.7116    -0.0169 S.3     
   5 C5             1.1681    -0.5677    -0.0121 C.2     
   6 C6             1.4387    -2.0502    -0.0227 C.3     
   7 C7             1.5165    -2.5442    -1.4687 C.3     
   8 C8             1.7912    -4.0493    -1.4794 C.3     
   9 C9             1.8690    -4.5432    -2.9254 C.3     
  10 C10            2.1395    -6.0257    -2.9359 C.2     
  11 N11            1.2478    -6.9651    -2.9329 N.2     
  12 S12            3.7275    -6.7933    -2.9623 S.3     
  13 C13            2.9647    -8.3272    -2.9581 C.2     
  14 N14            1.6777    -8.1521    -2.9433 N.2     
  15 N15            3.6154    -9.5562    -2.9730 N.am    
  16 C16            2.8993   -10.6980    -2.9678 C.2     
  17 O17            1.6874   -10.6536    -2.9501 O.2     
  18 C18            3.6044   -12.0297    -2.9839 C.3     
  19 N19            1.3017     3.2566     0.0067 N.am    
  20 C20            0.2284     4.0717     0.0214 C.2     
  21 C21            0.4176     5.5667     0.0272 C.3     
  22 O22           -0.8897     3.6019     0.0299 O.2     
  23 C23            1.1548     6.0097    -1.2441 C.3     
  24 C24            0.2035     6.9436    -1.9523 C.2     
  25 C25           -1.0236     7.0453    -1.1451 C.ar    
  26 C26           -0.9238     6.2593     0.0026 C.ar    
  27 C27           -2.1956     7.7835    -1.3733 C.ar    
  28 C28           -3.2326     7.7283    -0.4691 C.ar    
  29 C29           -3.1240     6.9452     0.6670 C.ar    
  30 C30           -1.9736     6.2143     0.9005 C.ar    
  31 O31            0.4135     7.5115    -3.0028 O.2     
  32 C32            2.5940   -13.1517    -2.9743 C.ar    
  33 C33            4.4085   -12.1848    -4.2821 C.3     
  34 C34            3.8257   -13.3953    -4.9704 C.2     
  35 C35            2.7408   -13.9232    -4.1267 C.ar    
  36 C36            1.8980   -15.0279    -4.3267 C.ar    
  37 C37            0.9379   -15.3415    -3.3909 C.ar    
  38 C38            0.7998   -14.5692    -2.2505 C.ar    
  39 C39            1.6251   -13.4790    -2.0446 C.ar    
  40 O40            4.1877   -13.8528    -6.0333 O.2     
  41 H41            2.3843    -2.2506     0.4811 H       
  42 H42            0.6334    -2.5702     0.4961 H       
  43 H43            0.5709    -2.3438    -1.9724 H       
  44 H44            2.3218    -2.0242    -1.9874 H       
  45 H45            2.7368    -4.2496    -0.9756 H       
  46 H46            0.9858    -4.5693    -0.9606 H       
  47 H47            0.9234    -4.3429    -3.4291 H       
  48 H48            2.6743    -4.0232    -3.4441 H       
  49 H49            4.5846    -9.5917    -2.9871 H       
  50 H50            4.2651   -12.1136    -2.1210 H       
  51 H51            2.1959     3.6323    -0.0001 H       
  52 H52            0.9799     5.8692     0.9106 H       
  53 H53            2.0747     6.5334    -0.9842 H       
  54 H54            1.3752     5.1470    -1.8729 H       
  55 H55           -2.2838     8.3956    -2.2587 H       
  56 H56           -4.1330     8.2978    -0.6467 H       
  57 H57           -3.9398     6.9053     1.3735 H       
  58 H58           -1.8951     5.6051     1.7888 H       
  59 H59            4.2893   -11.3005    -4.9080 H       
  60 H60            5.4621   -12.3495    -4.0564 H       
  61 H61            2.0025   -15.6322    -5.2157 H       
  62 H62            0.2908   -16.1919    -3.5472 H       
  63 H63            0.0451   -14.8188    -1.5194 H       
  64 H64            1.5120   -12.8803    -1.1529 H       
@<TRIPOS>BOND
   1    1    2 1
   2    1    3 2
   3    2    5 2
   4    3    4 1
   5    3   19 1
   6    4    5 1
   7    5    6 1
   8    6    7 1
   9    6   41 1
  10    6   42 1
  11    7    8 1
  12    7   43 1
  13    7   44 1
  14    8    9 1
  15    8   45 1
  16    8   46 1
  17    9   10 1
  18    9   47 1
  19    9   48 1
  20   10   11 2
  21   10   12 1
  22   11   14 1
  23   12   13 1
  24   13   14 2
  25   13   15 1
  26   15   16 am
  27   15   49 1
  28   16   17 2
  29   16   18 1
  30   18   32 1
  31   18   33 1
  32   18   50 1
  33   19   20 am
  34   19   51 1
  35   20   21 1
  36   20   22 2
  37   21   23 1
  38   21   26 1
  39   21   52 1
  40   23   24 1
  41   23   53 1
  42   23   54 1
  43   24   25 1
  44   24   31 2
  45   25   26 ar
  46   25   27 ar
  47   26   30 ar
  48   27   28 ar
  49   27   55 1
  50   28   29 ar
  51   28   56 1
  52   29   30 ar
  53   29   57 1
  54   30   58 1
  55   32   35 ar
  56   32   39 ar
  57   33   34 1
  58   33   59 1
  59   33   60 1
  60   34   35 1
  61   34   40 2
  62   35   36 ar
  63   36   37 ar
  64   36   61 1
  65   37   38 ar
  66   37   62 1
  67   38   39 ar
  68   38   63 1
  69   39   64 1

#	End of record

