#	Name: ASD02198611
#	Creating user name:	WinNT
#	Creation time:	15. 06. 2019 20:19

#	Modifying user name:	WinNT
#	Modification time:	15. 06. 2019 20:19

#	Program:	/corina/corina34_cracker 3.40 0067  02.08.2006

@<TRIPOS>MOLECULE
ASD02198611
  41   44    0    0    0
SMALL
NO_CHARGES


@<TRIPOS>ATOM
   1 C1            -0.0439     1.5050    -0.1136 C.2     
   2 C2            -0.0745     0.1655     0.0992 C.2     
   3 N3             1.0695    -0.5369     0.2615 N.pl3   
   4 N4             2.2344    -0.0031     0.2270 N.2     
   5 C5             2.4068     1.2860     0.0284 C.2     
   6 C6             1.2215     2.1381    -0.1596 C.2     
   7 C7             0.9770    -1.9160     0.4785 C.ar    
   8 C8             0.9841    -2.4201     1.7755 C.ar    
   9 C9             0.8926    -3.7840     1.9850 C.ar    
  10 C10            0.7942    -4.6450     0.9073 C.ar    
  11 C11            0.7874    -4.1463    -0.3823 C.ar    
  12 C12            0.8723    -2.7847    -0.5996 C.ar    
  13 C13            3.7643     1.8672    -0.0047 C.2     
  14 N14            4.3065     2.6065    -1.0182 N.pl3   
  15 N15            5.6086     2.9576    -0.6407 N.2     
  16 C16            5.8523     2.4583     0.5448 C.2     
  17 C17            4.7202     1.7712     0.9827 C.2     
  18 C18            3.6735     2.9510    -2.2192 C.ar    
  19 C19            2.9064     2.0118    -2.8958 C.ar    
  20 O20            1.3253     3.3410    -0.3478 O.2     
  21 C21            3.8071     4.2342    -2.7330 C.ar    
  22 C22            3.1817     4.5708    -3.9175 C.ar    
  23 C23            2.4232     3.6315    -4.5918 C.ar    
  24 C24            2.2836     2.3545    -4.0799 C.ar    
  25 F25            1.0807    -1.5788     2.8281 F       
  26 C26            0.6805    -5.0895    -1.5528 C.3     
  27 F27            0.6009    -6.4057    -1.0854 F       
  28 F28           -0.4681    -4.7869    -2.2921 F       
  29 F29            1.8093    -4.9514    -2.3676 F       
  30 H30           -0.9549     2.0693    -0.2481 H       
  31 H31           -1.0246    -0.3463     0.1399 H       
  32 H32            0.8983    -4.1770     2.9909 H       
  33 H33            0.7228    -5.7098     1.0734 H       
  34 H34            0.8665    -2.3969    -1.6075 H       
  35 H35            6.7760     2.5641     1.0944 H       
  36 H36            4.6141     1.2522     1.9239 H       
  37 H37            2.7972     1.0142    -2.4966 H       
  38 H38            4.3991     4.9683    -2.2067 H       
  39 H39            3.2850     5.5687    -4.3175 H       
  40 H40            1.9352     3.8971    -5.5179 H       
  41 H41            1.6908     1.6231    -4.6090 H       
@<TRIPOS>BOND
   1    1    2 2
   2    1    6 1
   3    1   30 1
   4    2    3 1
   5    2   31 1
   6    3    4 1
   7    3    7 1
   8    4    5 2
   9    5    6 1
  10    5   13 1
  11    6   20 2
  12    7    8 ar
  13    7   12 ar
  14    8    9 ar
  15    8   25 1
  16    9   10 ar
  17    9   32 1
  18   10   11 ar
  19   10   33 1
  20   11   12 ar
  21   11   26 1
  22   12   34 1
  23   13   14 1
  24   13   17 2
  25   14   15 1
  26   14   18 1
  27   15   16 2
  28   16   17 1
  29   16   35 1
  30   17   36 1
  31   18   21 ar
  32   18   19 ar
  33   19   24 ar
  34   19   37 1
  35   21   22 ar
  36   21   38 1
  37   22   23 ar
  38   22   39 1
  39   23   24 ar
  40   23   40 1
  41   24   41 1
  42   26   27 1
  43   26   28 1
  44   26   29 1

#	End of record

