#	Name: ASD06660198
#	Creating user name:	WinNT
#	Creation time:	15. 06. 2019 21:08

#	Modifying user name:	WinNT
#	Modification time:	15. 06. 2019 21:08

#	Program:	/corina/corina34_cracker 3.40 0067  02.08.2006

@<TRIPOS>MOLECULE
ASD06660198
  69   72    0    0    0
SMALL
NO_CHARGES


@<TRIPOS>ATOM
   1 C1            -0.0363     1.5041     0.0181 C.2     
   2 C2            -0.0150    -0.0027     0.0113 C.3     
   3 C3            -0.7241    -0.5171    -1.2431 C.3     
   4 O4             1.0015     2.1229     0.0250 O.2     
   5 O5            -1.2081     2.1588     0.0110 O.3     
   6 C6            -0.8113    -2.0207    -1.1900 C.ar    
   7 C7            -1.9060    -2.6280    -0.6027 C.ar    
   8 C8            -1.9889    -4.0057    -0.5524 C.ar    
   9 C9            -0.9716    -4.7812    -1.0929 C.ar    
  10 C10            0.1263    -4.1682    -1.6824 C.ar    
  11 C11            0.2009    -2.7901    -1.7338 C.ar    
  12 N12           -1.0523    -6.1772    -1.0432 N.am    
  13 C13           -0.1772    -7.0091    -1.6340 C.2     
  14 C14           -0.5641    -8.4469    -1.3664 C.3     
  15 C15           -1.5582    -8.3586    -0.1854 C.3     
  16 C16           -2.0998    -6.9214    -0.3340 C.3     
  17 C17           -2.6796    -9.3885    -0.3354 C.3     
  18 N18           -2.1230   -10.7380    -0.2117 N.pl3   
  19 C19           -2.9565   -11.8457    -0.3142 C.ar    
  20 C20           -4.3185   -11.6657    -0.5342 C.ar    
  21 C21           -5.1362   -12.7766    -0.6341 C.ar    
  22 C22           -4.5624   -14.0353    -0.5101 C.ar    
  23 C23           -3.2034   -14.1403    -0.2926 C.ar    
  24 N24           -2.4464   -13.0627    -0.2069 N.ar    
  25 O25            0.7828    -6.6580    -2.2869 O.2     
  26 C26            2.0394    -0.5962     1.1794 C.2     
  27 O27            1.4900    -0.3202     2.2249 O.2     
  28 N28            1.3729    -0.4716     0.0146 N.am    
  29 C29            3.4671    -1.0784     1.1828 C.3     
  30 C30            3.9849    -1.1291     2.6216 C.3     
  31 C31            3.1203    -2.0892     3.4412 C.3     
  32 C32            3.1876    -3.4882     2.8254 C.3     
  33 C33            2.6698    -3.4375     1.3866 C.3     
  34 C34            3.5343    -2.4774     0.5670 C.3     
  35 C35            4.3316    -0.1184     0.3632 C.3     
  36 H36           -0.5272    -0.3774     0.8976 H       
  37 H37           -1.7285    -0.0964    -1.2910 H       
  38 H38           -0.1618    -0.2168    -2.1273 H       
  39 H39           -1.1711     3.1251     0.0158 H       
  40 H40           -2.6969    -2.0243    -0.1825 H       
  41 H41           -2.8438    -4.4794    -0.0929 H       
  42 H42            0.9191    -4.7686    -2.1036 H       
  43 H43            1.0524    -2.3128    -2.1958 H       
  44 H44           -1.0486    -8.8806    -2.2412 H       
  45 H45            0.3117    -9.0316    -1.0850 H       
  46 H46           -1.0435    -8.4805     0.7677 H       
  47 H47           -2.2774    -6.4806     0.6469 H       
  48 H48           -3.0200    -6.9266    -0.9182 H       
  49 H49           -3.4251    -9.2302     0.4439 H       
  50 H50           -3.1472    -9.2766    -1.3136 H       
  51 H51           -1.1728   -10.8585    -0.0584 H       
  52 H52           -4.7316   -10.6720    -0.6254 H       
  53 H53           -6.1971   -12.6678    -0.8043 H       
  54 H54           -5.1734   -14.9228    -0.5829 H       
  55 H55           -2.7532   -15.1172    -0.1956 H       
  56 H56            1.8123    -0.6923    -0.8216 H       
  57 H57            5.0176    -1.4779     2.6241 H       
  58 H58            3.9370    -0.1325     3.0603 H       
  59 H59            3.4892    -2.1253     4.4663 H       
  60 H60            2.0877    -1.7404     3.4388 H       
  61 H61            4.2202    -3.8370     2.8279 H       
  62 H62            2.5716    -4.1722     3.4093 H       
  63 H63            2.7177    -4.4342     0.9479 H       
  64 H64            1.6371    -3.0887     1.3842 H       
  65 H65            3.1655    -2.4413    -0.4580 H       
  66 H66            4.5670    -2.8262     0.5695 H       
  67 H67            4.2838     0.8783     0.8019 H       
  68 H68            5.3643    -0.4672     0.3656 H       
  69 H69            3.9628    -0.0823    -0.6619 H       
@<TRIPOS>BOND
   1    1    2 1
   2    1    4 2
   3    1    5 1
   4    2    3 1
   5    2   28 1
   6    2   36 1
   7    3    6 1
   8    3   37 1
   9    3   38 1
  10    5   39 1
  11    6    7 ar
  12    6   11 ar
  13    7    8 ar
  14    7   40 1
  15    8    9 ar
  16    8   41 1
  17    9   10 ar
  18    9   12 1
  19   10   11 ar
  20   10   42 1
  21   11   43 1
  22   12   13 am
  23   12   16 1
  24   13   14 1
  25   13   25 2
  26   14   15 1
  27   14   44 1
  28   14   45 1
  29   15   16 1
  30   15   17 1
  31   15   46 1
  32   16   47 1
  33   16   48 1
  34   17   18 1
  35   17   49 1
  36   17   50 1
  37   18   19 1
  38   18   51 1
  39   19   20 ar
  40   19   24 ar
  41   20   21 ar
  42   20   52 1
  43   21   22 ar
  44   21   53 1
  45   22   23 ar
  46   22   54 1
  47   23   24 ar
  48   23   55 1
  49   26   27 2
  50   26   28 am
  51   26   29 1
  52   28   56 1
  53   29   30 1
  54   29   34 1
  55   29   35 1
  56   30   31 1
  57   30   57 1
  58   30   58 1
  59   31   32 1
  60   31   59 1
  61   31   60 1
  62   32   33 1
  63   32   61 1
  64   32   62 1
  65   33   34 1
  66   33   63 1
  67   33   64 1
  68   34   65 1
  69   34   66 1
  70   35   67 1
  71   35   68 1
  72   35   69 1

#	End of record

