#	Name: ASD01914514
#	Creating user name:	WinNT
#	Creation time:	15. 06. 2019 20:03

#	Modifying user name:	WinNT
#	Modification time:	15. 06. 2019 20:03

#	Program:	/corina/corina34_cracker 3.40 0067  02.08.2006

@<TRIPOS>MOLECULE
ASD01914514
  39   41    0    0    0
SMALL
NO_CHARGES


@<TRIPOS>ATOM
   1 O1            -1.9520     3.3556     1.4537 O.2     
   2 C2            -1.0395     2.9657     0.7514 C.2     
   3 C3             0.2387     3.7074     0.7209 C.ar    
   4 N4            -1.1914     1.8539     0.0049 N.am    
   5 C5            -2.3619     1.0958     0.1097 C.ar    
   6 C6            -3.5814     1.7256     0.3151 C.ar    
   7 C7            -4.7404     0.9699     0.4186 C.ar    
   8 C8            -4.6767    -0.4146     0.3163 C.ar    
   9 C9            -3.4612    -1.0384     0.1123 C.ar    
  10 C10           -2.3060    -0.2882     0.0027 C.ar    
  11 N11           -5.9710     1.6005     0.6260 N.am    
  12 C12           -7.0868     1.1051     0.0550 C.2     
  13 O13           -7.0385     0.0644    -0.5707 O.2     
  14 C14           -8.3720     1.8292     0.1900 C.ar    
  15 C15           -9.5216     1.3120    -0.4025 C.ar    
  16 C16          -10.7170     2.0007    -0.2670 C.ar    
  17 C17          -10.7207     3.1827     0.4565 C.ar    
  18 C18           -9.5389     3.6386     1.0192 C.ar    
  19 N19           -8.4196     2.9627     0.8794 N.ar    
  20 C20            0.4012     4.8562     1.4974 C.ar    
  21 C21            1.2901     3.2591    -0.0798 C.ar    
  22 C22            2.4817     3.9566    -0.1032 C.ar    
  23 C23            2.6338     5.0980     0.6655 C.ar    
  24 C24            1.5964     5.5440     1.4652 C.ar    
  25 Cl25           3.7915     3.4009    -1.0978 Cl      
  26 H26           -0.4889     1.5795    -0.6050 H       
  27 H27           -3.6281     2.8017     0.3946 H       
  28 H28           -5.5784    -1.0035     0.3968 H       
  29 H29           -3.4143    -2.1145     0.0339 H       
  30 H30           -1.3572    -0.7790    -0.1568 H       
  31 H31           -6.0217     2.3945     1.1809 H       
  32 H32           -9.4821     0.3878    -0.9598 H       
  33 H33          -11.6248     1.6248    -0.7153 H       
  34 H34          -11.6354     3.7433     0.5804 H       
  35 H35           -9.5381     4.5595     1.5833 H       
  36 H36           -0.4076     5.2060     2.1219 H       
  37 H37            1.1722     2.3686    -0.6794 H       
  38 H38            3.5677     5.6401     0.6443 H       
  39 H39            1.7214     6.4351     2.0625 H       
@<TRIPOS>BOND
   1    1    2 2
   2    2    3 1
   3    2    4 am
   4    3   20 ar
   5    3   21 ar
   6    4    5 1
   7    4   26 1
   8    5    6 ar
   9    5   10 ar
  10    6    7 ar
  11    6   27 1
  12    7    8 ar
  13    7   11 1
  14    8    9 ar
  15    8   28 1
  16    9   10 ar
  17    9   29 1
  18   10   30 1
  19   11   12 am
  20   11   31 1
  21   12   13 2
  22   12   14 1
  23   14   15 ar
  24   14   19 ar
  25   15   16 ar
  26   15   32 1
  27   16   17 ar
  28   16   33 1
  29   17   18 ar
  30   17   34 1
  31   18   19 ar
  32   18   35 1
  33   20   24 ar
  34   20   36 1
  35   21   22 ar
  36   21   37 1
  37   22   23 ar
  38   22   25 1
  39   23   24 ar
  40   23   38 1
  41   24   39 1

#	End of record

