#	Name: ASD00960202
#	Creating user name:	WinNT
#	Creation time:	15. 06. 2019 18:53

#	Modifying user name:	WinNT
#	Modification time:	15. 06. 2019 18:53

#	Program:	/corina/corina34_cracker 3.40 0067  02.08.2006

@<TRIPOS>MOLECULE
ASD00960202
  39   42    0    0    0
SMALL
NO_CHARGES


@<TRIPOS>ATOM
   1 C1            -0.0170     1.4011     0.0097 C.2     
   2 C2             0.0021    -0.0041     0.0020 C.2     
   3 N3             1.2759     1.8417    -0.0002 N.pl3   
   4 C4             2.1132     0.7545    -0.0140 C.2     
   5 C5             1.3422    -0.3975    -0.0129 C.2     
   6 N6             1.8440     3.1238     0.0008 N.2     
   7 C7             3.1433     3.2645    -0.0112 C.2     
   8 N8             3.9674     2.2213    -0.0251 N.2     
   9 C9             3.5128     0.9806    -0.0258 C.2     
  10 N10            4.3911    -0.0839    -0.0397 N.pl3   
  11 C11           -1.1742    -0.8972     0.0089 C.2     
  12 N12           -1.1417    -2.2617     0.0012 N.pl3   
  13 C13           -2.4405    -2.6928     0.0118 C.2     
  14 C14           -3.2221    -1.5930     0.0254 C.2     
  15 N15           -2.4322    -0.5139     0.0291 N.2     
  16 C16           -1.1734     2.2169     0.0199 C.2     
  17 O17           -2.2782     1.7064     0.0226 O.2     
  18 O18           -1.0510     3.5612     0.0266 O.3     
  19 C19           -2.2601     4.3227     0.0367 C.3     
  20 C20           -1.9280     5.7926     0.0431 C.ar    
  21 C21           -1.7816     6.4733    -1.1512 C.ar    
  22 C22           -1.4769     7.8216    -1.1453 C.ar    
  23 C23           -1.3191     8.4894     0.0547 C.ar    
  24 C24           -1.4664     7.8089     1.2489 C.ar    
  25 C25           -1.7754     6.4616     1.2431 C.ar    
  26 H26            1.7101    -1.4128    -0.0215 H       
  27 H27            3.5611     4.2604    -0.0102 H       
  28 H28            5.3477     0.0766    -0.0490 H       
  29 H29            4.0519    -0.9927    -0.0401 H       
  30 H30           -0.3486    -2.8199    -0.0099 H       
  31 H31           -2.7764    -3.7193     0.0096 H       
  32 H32           -4.3020    -1.5856     0.0361 H       
  33 H33           -2.8458     4.0864    -0.8517 H       
  34 H34           -2.8370     4.0767     0.9282 H       
  35 H35           -1.9049     5.9516    -2.0887 H       
  36 H36           -1.3619     8.3533    -2.0784 H       
  37 H37           -1.0804     9.5427     0.0592 H       
  38 H38           -1.3428     8.3306     2.1865 H       
  39 H39           -1.8941     5.9307     2.1761 H       
@<TRIPOS>BOND
   1    1    2 2
   2    1    3 1
   3    1   16 1
   4    2   11 1
   5    2    5 1
   6    3    4 1
   7    3    6 1
   8    4    5 2
   9    4    9 1
  10    5   26 1
  11    6    7 2
  12    7    8 1
  13    7   27 1
  14    8    9 2
  15    9   10 1
  16   10   28 1
  17   10   29 1
  18   11   12 1
  19   11   15 2
  20   12   13 1
  21   12   30 1
  22   13   14 2
  23   13   31 1
  24   14   15 1
  25   14   32 1
  26   16   17 2
  27   16   18 1
  28   18   19 1
  29   19   20 1
  30   19   33 1
  31   19   34 1
  32   20   21 ar
  33   20   25 ar
  34   21   22 ar
  35   21   35 1
  36   22   23 ar
  37   22   36 1
  38   23   24 ar
  39   23   37 1
  40   24   25 ar
  41   24   38 1
  42   25   39 1

#	End of record

