#	Name: ASD01910463
#	Creating user name:	WinNT
#	Creation time:	15. 06. 2019 19:55

#	Modifying user name:	WinNT
#	Modification time:	15. 06. 2019 19:55

#	Program:	/corina/corina34_cracker 3.40 0067  02.08.2006

@<TRIPOS>MOLECULE
ASD01910463
  46   49    0    0    0
SMALL
NO_CHARGES


@<TRIPOS>ATOM
   1 C1            -0.8526     1.9335     1.0578 C.ar    
   2 C2            -0.8688     0.4948     0.6910 C.2     
   3 N3            -1.8822    -0.3754     0.9004 N.2     
   4 C4            -1.4659    -1.5217     0.4228 C.2     
   5 O5            -0.2336    -1.3242    -0.0559 O.3     
   6 N6             0.0918    -0.1662     0.1001 N.2     
   7 C7            -2.2321    -2.8193     0.4145 C.3     
   8 C8            -2.4162    -3.2947    -1.0285 C.3     
   9 C9            -3.2226    -4.5953    -1.0401 C.3     
  10 C10           -2.4548    -5.6743    -0.2698 C.3     
  11 N11           -2.1469    -5.1671     1.0743 N.am    
  12 C12           -1.4531    -3.8781     1.2012 C.3     
  13 C13           -2.4942    -5.8708     2.1700 C.2     
  14 C14           -3.2647    -7.1233     2.0299 C.ar    
  15 O15           -2.1734    -5.4747     3.2737 O.2     
  16 C16           -2.8383    -8.1126     1.1413 C.ar    
  17 C17           -3.5608    -9.2797     1.0147 C.ar    
  18 C18           -4.7090    -9.4723     1.7678 C.ar    
  19 C19           -5.1371    -8.4931     2.6512 C.ar    
  20 C20           -4.4190    -7.3247     2.7897 C.ar    
  21 F21           -5.4134   -10.6180     1.6399 F       
  22 C22            0.2712     2.7051     0.7754 C.ar    
  23 C23            0.2718     4.0458     1.1230 C.ar    
  24 C24           -0.8535     4.5695     1.7420 C.ar    
  25 C25           -1.9355     3.7443     1.9925 C.ar    
  26 N26           -1.9111     2.4739     1.6468 N.ar    
  27 C27            1.4706     2.0900     0.1014 C.3     
  28 H28           -3.2084    -2.6683     0.8751 H       
  29 H29           -2.9488    -2.5322    -1.5969 H       
  30 H30           -1.4399    -3.4686    -1.4809 H       
  31 H31           -4.1895    -4.4281    -0.5656 H       
  32 H32           -3.3733    -4.9208    -2.0693 H       
  33 H33           -3.0675    -6.5722    -0.1900 H       
  34 H34           -1.5278    -5.9074    -0.7936 H       
  35 H35           -0.4444    -3.9647     0.7973 H       
  36 H36           -1.4050    -3.5909     2.2516 H       
  37 H37           -1.9443    -7.9635     0.5540 H       
  38 H38           -3.2321   -10.0453     0.3276 H       
  39 H39           -6.0323    -8.6480     3.2351 H       
  40 H40           -4.7531    -6.5628     3.4784 H       
  41 H41            1.1292     4.6694     0.9169 H       
  42 H42           -0.8847     5.6110     2.0260 H       
  43 H43           -2.8133     4.1484     2.4747 H       
  44 H44            1.3655     2.1797    -0.9798 H       
  45 H45            2.3737     2.6087     0.4229 H       
  46 H46            1.5400     1.0368     0.3735 H       
@<TRIPOS>BOND
   1    1    2 1
   2    1   22 ar
   3    1   26 ar
   4    2    3 1
   5    2    6 2
   6    3    4 2
   7    4    5 1
   8    4    7 1
   9    5    6 1
  10    7    8 1
  11    7   12 1
  12    7   28 1
  13    8    9 1
  14    8   29 1
  15    8   30 1
  16    9   10 1
  17    9   31 1
  18    9   32 1
  19   10   11 1
  20   10   33 1
  21   10   34 1
  22   11   12 1
  23   11   13 am
  24   12   35 1
  25   12   36 1
  26   13   14 1
  27   13   15 2
  28   14   16 ar
  29   14   20 ar
  30   16   17 ar
  31   16   37 1
  32   17   18 ar
  33   17   38 1
  34   18   19 ar
  35   18   21 1
  36   19   20 ar
  37   19   39 1
  38   20   40 1
  39   22   23 ar
  40   22   27 1
  41   23   24 ar
  42   23   41 1
  43   24   25 ar
  44   24   42 1
  45   25   26 ar
  46   25   43 1
  47   27   44 1
  48   27   45 1
  49   27   46 1

#	End of record

