#	Name: ASD01411128
#	Creating user name:	WinNT
#	Creation time:	15. 06. 2019 19:19

#	Modifying user name:	WinNT
#	Modification time:	15. 06. 2019 19:19

#	Program:	/corina/corina34_cracker 3.40 0067  02.08.2006

@<TRIPOS>MOLECULE
ASD01411128
  81   84    0    0    0
SMALL
NO_CHARGES


@<TRIPOS>ATOM
   1 C1            -0.4526     2.2812    -0.3974 C.ar    
   2 C2            -0.3963     0.9615    -0.8387 C.ar    
   3 C3            -1.4875     0.1267    -0.6842 C.ar    
   4 C4            -2.6468     0.5999    -0.0875 C.ar    
   5 C5            -2.7089     1.9293     0.3592 C.ar    
   6 C6            -1.5986     2.7646     0.2034 C.ar    
   7 O7             0.6261     3.0948    -0.5533 O.3     
   8 C8             0.8120     3.6818    -1.7632 C.ar    
   9 N9            -3.7471    -0.2419     0.0677 N.am    
  10 C10           -3.9437    -0.8856     1.2355 C.2     
  11 C11           -3.0426    -0.6064     2.4107 C.3     
  12 O12           -4.8457    -1.6894     1.3404 O.2     
  13 C13           -3.7733    -0.9574     3.7083 C.3     
  14 C14           -1.7746    -1.4547     2.2940 C.3     
  15 C15           -0.8598    -1.1713     3.4872 C.3     
  16 C16           -1.5905    -1.5222     4.7848 C.3     
  17 C17           -2.8585    -0.6740     4.9015 C.3     
  18 C18           -0.6757    -1.2388     5.9779 C.3     
  19 N19           -0.1031     3.5377    -2.7069 N.ar    
  20 C20           -4.6896    -0.4270    -1.0384 C.3     
  21 C21           -4.5791     0.7534    -2.0055 C.3     
  22 C22            1.9583     4.4313    -1.9932 C.ar    
  23 C23            2.1388     5.0262    -3.2294 C.ar    
  24 C24            1.1560     4.8482    -4.2011 C.ar    
  25 C25            0.0347     4.0900    -3.8970 C.ar    
  26 F26            0.7299     0.4949    -1.4211 F       
  27 C27           -4.3594    -1.7250    -1.7781 C.3     
  28 O28           -5.0155     1.9470    -1.3522 O.3     
  29 O29           -4.5540    -2.8360    -0.9006 O.3     
  30 C30           -4.9521     3.1152    -2.1727 C.3     
  31 C31           -4.2715    -4.1037    -1.4965 C.3     
  32 N32            1.2958     5.4311    -5.4659 N.3     
  33 C33            0.1453     5.1115    -6.3235 C.3     
  34 C34            0.3100     5.8159    -7.6727 C.3     
  35 O35            1.5514     5.4207    -8.2627 O.3     
  36 C36            2.6934     5.7177    -7.4546 C.3     
  37 C37            2.5528     5.0123    -6.1031 C.3     
  38 C38            2.9927     4.5950    -0.9096 C.3     
  39 F39            4.0438     5.3869    -1.3842 F       
  40 F40            2.4095     5.2118     0.2024 F       
  41 F41            3.4850     3.3384    -0.5412 F       
  42 C42           -3.9357     2.4399     0.9938 C.2     
  43 O43           -4.9273     1.7396     1.0505 O.2     
  44 O44           -3.9588     3.6840     1.5117 O.3     
  45 H45           -1.4373    -0.8955    -1.0290 H       
  46 H46           -1.6396     3.7883     0.5452 H       
  47 H47           -2.7736     0.4498     2.4195 H       
  48 H48           -4.6767    -0.3531     3.7915 H       
  49 H49           -4.0423    -2.0137     3.6995 H       
  50 H50           -2.0436    -2.5109     2.2852 H       
  51 H51           -1.2540    -1.2046     1.3696 H       
  52 H52            0.0435    -1.7755     3.4040 H       
  53 H53           -0.5908    -0.1150     3.4959 H       
  54 H54           -1.8595    -2.5785     4.7760 H       
  55 H55           -2.5895     0.3823     4.9103 H       
  56 H56           -3.3791    -0.9240     5.8259 H       
  57 H57           -0.4067    -0.1826     5.9867 H       
  58 H58           -1.1963    -1.4889     6.9024 H       
  59 H59            0.2276    -1.8431     5.8948 H       
  60 H60           -5.7049    -0.4810    -0.6455 H       
  61 H61           -3.5419     0.8697    -2.3198 H       
  62 H62           -5.2046     0.5675    -2.8786 H       
  63 H63            3.0204     5.6148    -3.4362 H       
  64 H64           -0.7319     3.9469    -4.6442 H       
  65 H65           -5.0140    -1.8266    -2.6436 H       
  66 H66           -3.3210    -1.7007    -2.1087 H       
  67 H67           -5.5854     2.9784    -3.0493 H       
  68 H68           -5.2998     3.9778    -1.6043 H       
  69 H69           -3.9226     3.2805    -2.4905 H       
  70 H70           -4.4433    -4.8947    -0.7665 H       
  71 H71           -4.9243    -4.2547    -2.3563 H       
  72 H72           -3.2313    -4.1288    -1.8213 H       
  73 H73            0.0957     4.0338    -6.4792 H       
  74 H74           -0.7720     5.4532    -5.8441 H       
  75 H75           -0.5116     5.5363    -8.3321 H       
  76 H76            0.3058     6.8955    -7.5226 H       
  77 H77            3.5954     5.3670    -7.9561 H       
  78 H78            2.7584     6.7945    -7.2981 H       
  79 H79            3.3928     5.2816    -5.4628 H       
  80 H80            2.5417     3.9330    -6.2553 H       
  81 H81           -4.7867     3.9751     1.9179 H       
@<TRIPOS>BOND
   1    1    2 ar
   2    1    7 1
   3    1    6 ar
   4    2    3 ar
   5    2   26 1
   6    3    4 ar
   7    3   45 1
   8    4    5 ar
   9    4    9 1
  10    5    6 ar
  11    5   42 1
  12    6   46 1
  13    7    8 1
  14    8   22 ar
  15    8   19 ar
  16    9   10 am
  17    9   20 1
  18   10   11 1
  19   10   12 2
  20   11   13 1
  21   11   14 1
  22   11   47 1
  23   13   17 1
  24   13   48 1
  25   13   49 1
  26   14   15 1
  27   14   50 1
  28   14   51 1
  29   15   16 1
  30   15   52 1
  31   15   53 1
  32   16   17 1
  33   16   18 1
  34   16   54 1
  35   17   55 1
  36   17   56 1
  37   18   57 1
  38   18   58 1
  39   18   59 1
  40   19   25 ar
  41   20   21 1
  42   20   27 1
  43   20   60 1
  44   21   28 1
  45   21   61 1
  46   21   62 1
  47   22   23 ar
  48   22   38 1
  49   23   24 ar
  50   23   63 1
  51   24   25 ar
  52   24   32 1
  53   25   64 1
  54   27   29 1
  55   27   65 1
  56   27   66 1
  57   28   30 1
  58   29   31 1
  59   30   67 1
  60   30   68 1
  61   30   69 1
  62   31   70 1
  63   31   71 1
  64   31   72 1
  65   32   33 1
  66   32   37 1
  67   33   34 1
  68   33   73 1
  69   33   74 1
  70   34   35 1
  71   34   75 1
  72   34   76 1
  73   35   36 1
  74   36   37 1
  75   36   77 1
  76   36   78 1
  77   37   79 1
  78   37   80 1
  79   38   39 1
  80   38   40 1
  81   38   41 1
  82   42   43 2
  83   42   44 1
  84   44   81 1

#	End of record

