#	Name: ASD03270002
#	Creating user name:	WinNT
#	Creation time:	15. 06. 2019 20:35

#	Modifying user name:	WinNT
#	Modification time:	15. 06. 2019 20:35

#	Program:	/corina/corina34_cracker 3.40 0067  02.08.2006

@<TRIPOS>MOLECULE
ASD03270002
  52   55    0    0    0
SMALL
NO_CHARGES


@<TRIPOS>ATOM
   1 C1            -0.9306     1.7819    -2.0329 C.ar    
   2 C2            -1.1076     0.4786    -2.4784 C.ar    
   3 C3            -0.3829     0.0123    -3.5642 C.ar    
   4 C4             0.5179     0.8364    -4.2100 C.ar    
   5 C5             0.7065     2.1394    -3.7775 C.ar    
   6 C6            -1.5574     2.5436    -0.9238 C.ar    
   7 C7            -0.0136     2.6193    -2.6909 C.ar    
   8 C8            -0.0327     3.9358    -2.0090 C.2     
   9 C9            -2.4034     4.3952     0.9823 C.ar    
  10 C10           -2.9419     3.1265     0.9758 C.ar    
  11 C11           -2.5259     2.1885     0.0243 C.ar    
  12 C12           -1.0174     3.8389    -0.9050 C.ar    
  13 C13           -1.4448     4.7559     0.0487 C.ar    
  14 O14            0.6312     4.9096    -2.3008 O.2     
  15 C15           -3.1057     0.8298     0.0193 C.2     
  16 O16           -2.3800    -0.1404    -0.0803 O.2     
  17 N17           -4.4393     0.6659     0.1252 N.am    
  18 C18           -5.0143    -0.6816     0.1202 C.3     
  19 C19           -4.9788    -1.2564     1.5377 C.3     
  20 C20           -6.4413    -0.6170    -0.3601 C.2     
  21 N21           -7.1745    -1.7445    -0.4475 N.am    
  22 O22           -6.9298     0.4495    -0.6679 O.2     
  23 C23           -8.5617    -1.6817    -0.9144 C.3     
  24 C24           -9.1532    -3.0677    -0.9195 C.2     
  25 O25           -8.4846    -4.0112    -0.5691 O.2     
  26 O26          -10.4228    -3.2542    -1.3133 O.3     
  27 C27           -3.5467    -1.4357     1.9713 C.ar    
  28 C28           -1.5736    -0.5730     3.0178 C.ar    
  29 C29           -0.9196    -1.7648     2.7673 C.ar    
  30 C30           -1.5771    -2.7898     2.1130 C.ar    
  31 C31           -2.8908    -2.6253     1.7153 C.ar    
  32 C32           -2.8872    -0.4086     2.6200 C.ar    
  33 H33           -1.8099    -0.1720    -1.9785 H       
  34 H34           -0.5234    -1.0021    -3.9072 H       
  35 H35            1.0778     0.4637    -5.0551 H       
  36 H36            1.4123     2.7807    -4.2845 H       
  37 H37           -2.7306     5.1129     1.7200 H       
  38 H38           -3.6881     2.8552     1.7079 H       
  39 H39           -1.0285     5.7524     0.0620 H       
  40 H40           -5.0183     1.4400     0.2047 H       
  41 H41           -4.4353    -1.3212    -0.5459 H       
  42 H42           -5.4821    -0.5716     2.2202 H       
  43 H43           -5.4860    -2.2211     1.5513 H       
  44 H44           -6.7838    -2.5975    -0.2013 H       
  45 H45           -9.1407    -1.0420    -0.2483 H       
  46 H46           -8.5870    -1.2721    -1.9242 H       
  47 H47          -10.7581    -4.1611    -1.2995 H       
  48 H48           -1.0599     0.2277     3.5290 H       
  49 H49            0.1067    -1.8933     3.0781 H       
  50 H50           -1.0662    -3.7209     1.9172 H       
  51 H51           -3.4047    -3.4263     1.2048 H       
  52 H52           -3.3982     0.5226     2.8158 H       
@<TRIPOS>BOND
   1    1    2 ar
   2    1    7 ar
   3    1    6 1
   4    2    3 ar
   5    2   33 1
   6    3    4 ar
   7    3   34 1
   8    4    5 ar
   9    4   35 1
  10    5    7 ar
  11    5   36 1
  12    6   12 ar
  13    6   11 ar
  14    7    8 1
  15    8   14 2
  16    8   12 1
  17    9   10 ar
  18    9   13 ar
  19    9   37 1
  20   10   11 ar
  21   10   38 1
  22   11   15 1
  23   12   13 ar
  24   13   39 1
  25   15   16 2
  26   15   17 am
  27   17   18 1
  28   17   40 1
  29   18   19 1
  30   18   20 1
  31   18   41 1
  32   19   27 1
  33   19   42 1
  34   19   43 1
  35   20   21 am
  36   20   22 2
  37   21   23 1
  38   21   44 1
  39   23   24 1
  40   23   45 1
  41   23   46 1
  42   24   25 2
  43   24   26 1
  44   26   47 1
  45   27   32 ar
  46   27   31 ar
  47   28   29 ar
  48   28   32 ar
  49   28   48 1
  50   29   30 ar
  51   29   49 1
  52   30   31 ar
  53   30   50 1
  54   31   51 1
  55   32   52 1

#	End of record

