#	Name: ASD01812666
#	Creating user name:	WinNT
#	Creation time:	15. 06. 2019 19:29

#	Modifying user name:	WinNT
#	Modification time:	15. 06. 2019 19:29

#	Program:	/corina/corina34_cracker 3.40 0067  02.08.2006

@<TRIPOS>MOLECULE
ASD01812666
  57   61    0    0    0
SMALL
NO_CHARGES


@<TRIPOS>ATOM
   1 O1            -0.0163     1.3523     0.0095 O.3     
   2 C2             0.0021    -0.0041     0.0020 C.ar    
   3 C3             1.2103    -0.6845    -0.0132 C.ar    
   4 C4             1.2312    -2.0654    -0.0213 C.ar    
   5 C5             0.0448    -2.7827    -0.0143 C.ar    
   6 C6            -1.1602    -2.1222     0.0007 C.ar    
   7 C7            -1.2002    -0.7250     0.0154 C.ar    
   8 C8            -2.5946    -2.5889     0.0110 C.3     
   9 N9            -3.4198    -1.3756     0.0259 N.am    
  10 C10           -2.6102    -0.3025     0.0375 C.2     
  11 C11           -4.8843    -1.3397     0.0396 C.3     
  12 O12           -2.9888     0.8528     0.0490 O.2     
  13 C13           -5.3735    -1.3361     1.4650 C.ar    
  14 C14           -5.5678    -0.1355     2.1238 C.ar    
  15 C15           -6.0161    -0.1265     3.4292 C.ar    
  16 C16           -6.2729    -1.3294     4.0831 C.ar    
  17 C17           -6.0756    -2.5356     3.4149 C.ar    
  18 C18           -5.6320    -2.5332     2.1079 C.ar    
  19 C19           -6.7548    -1.3258     5.4875 C.2     
  20 C20           -6.9972    -0.1879     6.2813 C.2     
  21 N21           -7.4107    -0.5912     7.4534 N.2     
  22 N22           -7.4484    -1.9908     7.4544 N.pl3   
  23 C23           -7.0491    -2.4239     6.2417 C.2     
  24 C24           -7.8565    -2.8382     8.5776 C.3     
  25 C25            1.2480     2.0184     0.0010 C.3     
  26 C26            1.0269     3.5323     0.0112 C.3     
  27 C27            2.3602     4.2346     0.0023 C.ar    
  28 C28            2.9603     4.5632    -1.1989 C.ar    
  29 C29            4.1833     5.2074    -1.2071 C.ar    
  30 C30            4.8061     5.5235    -0.0142 C.ar    
  31 C31            4.2056     5.1958     1.1870 C.ar    
  32 C32            2.9805     4.5554     1.1953 C.ar    
  33 H33            2.1385    -0.1325    -0.0190 H       
  34 H34            2.1758    -2.5887    -0.0335 H       
  35 H35            0.0677    -3.8625    -0.0211 H       
  36 H36           -2.8047    -3.1740    -0.8843 H       
  37 H37           -2.7884    -3.1849     0.9029 H       
  38 H38           -5.2304    -0.4380    -0.4656 H       
  39 H39           -5.2741    -2.2174    -0.4761 H       
  40 H40           -5.3680     0.7965     1.6160 H       
  41 H41           -6.1671     0.8115     3.9428 H       
  42 H42           -6.2733    -3.4710     3.9174 H       
  43 H43           -5.4826    -3.4677     1.5876 H       
  44 H44           -6.8641     0.8392     5.9748 H       
  45 H45           -6.9734    -3.4538     5.9254 H       
  46 H46           -8.9294    -3.0228     8.5225 H       
  47 H47           -7.3218    -3.7868     8.5301 H       
  48 H48           -7.6221    -2.3356     9.5160 H       
  49 H49            1.8174     1.7283     0.8840 H       
  50 H50            1.8004     1.7379    -0.8958 H       
  51 H51            0.4575     3.8223    -0.8718 H       
  52 H52            0.4745     3.8128     0.9080 H       
  53 H53            2.4738     4.3163    -2.1310 H       
  54 H54            4.6525     5.4635    -2.1456 H       
  55 H55            5.7619     6.0262    -0.0206 H       
  56 H56            4.6923     5.4424     2.1191 H       
  57 H57            2.5096     4.3026     2.1338 H       
@<TRIPOS>BOND
   1    1    2 1
   2    1   25 1
   3    2    3 ar
   4    2    7 ar
   5    3    4 ar
   6    3   33 1
   7    4    5 ar
   8    4   34 1
   9    5    6 ar
  10    5   35 1
  11    6    8 1
  12    6    7 ar
  13    7   10 1
  14    8    9 1
  15    8   36 1
  16    8   37 1
  17    9   10 am
  18    9   11 1
  19   10   12 2
  20   11   13 1
  21   11   38 1
  22   11   39 1
  23   13   14 ar
  24   13   18 ar
  25   14   15 ar
  26   14   40 1
  27   15   16 ar
  28   15   41 1
  29   16   17 ar
  30   16   19 1
  31   17   18 ar
  32   17   42 1
  33   18   43 1
  34   19   20 1
  35   19   23 2
  36   20   21 2
  37   20   44 1
  38   21   22 1
  39   22   23 1
  40   22   24 1
  41   23   45 1
  42   24   46 1
  43   24   47 1
  44   24   48 1
  45   25   26 1
  46   25   49 1
  47   25   50 1
  48   26   27 1
  49   26   51 1
  50   26   52 1
  51   27   28 ar
  52   27   32 ar
  53   28   29 ar
  54   28   53 1
  55   29   30 ar
  56   29   54 1
  57   30   31 ar
  58   30   55 1
  59   31   32 ar
  60   31   56 1
  61   32   57 1

#	End of record

