#	Name: ASD01890295
#	Creating user name:	WinNT
#	Creation time:	15. 06. 2019 19:50

#	Modifying user name:	WinNT
#	Modification time:	15. 06. 2019 19:50

#	Program:	/corina/corina34_cracker 3.40 0067  02.08.2006

@<TRIPOS>MOLECULE
ASD01890295
  47   49    0    0    0
SMALL
NO_CHARGES


@<TRIPOS>ATOM
   1 C1            -0.0171     1.4135     0.0098 C.2     
   2 C2             0.0021    -0.0041     0.0020 C.2     
   3 C3             1.1823    -0.6643    -0.0128 C.2     
   4 C4             1.2027    -2.1711    -0.0211 C.3     
   5 C5             1.3216    -2.6716    -1.4620 C.3     
   6 O6             1.0280     2.0360     0.0032 O.2     
   7 O7            -1.1948     2.0722     0.0190 O.3     
   8 C8             2.4426     0.0864    -0.0208 C.ar    
   9 C9             3.2232     0.1780     1.1285 C.ar    
  10 C10            4.4139     0.8892     1.1168 C.ar    
  11 C11            4.8641     1.5195    -0.0034 C.ar    
  12 C12            4.1286     1.4698    -1.1995 C.ar    
  13 C13            4.5810     2.1160    -2.3629 C.ar    
  14 C14            3.8405     2.0452    -3.5035 C.ar    
  15 C15            2.6392     1.3414    -3.5361 C.ar    
  16 C16            2.1710     0.7032    -2.4257 C.ar    
  17 C17            2.9095     0.7500    -1.2382 C.ar    
  18 C18            1.3421    -4.1784    -1.4703 C.ar    
  19 C19            0.1578    -4.8850    -1.5671 C.ar    
  20 C20            0.1759    -6.2670    -1.5748 C.ar    
  21 C21            1.3796    -6.9433    -1.4855 C.ar    
  22 C22            2.5645    -6.2356    -1.3886 C.ar    
  23 C23            2.5455    -4.8536    -1.3867 C.ar    
  24 Cl24           1.4031    -8.6791    -1.4945 Cl      
  25 C25           -1.1394     3.5001     0.0265 C.3     
  26 C26           -2.5610     4.0657     0.0363 C.3     
  27 H27           -0.9258    -0.5567     0.0079 H       
  28 H28            2.0550    -2.5261     0.5583 H       
  29 H29            0.2806    -2.5494     0.4200 H       
  30 H30            0.4694    -2.3166    -2.0414 H       
  31 H31            2.2438    -2.2933    -1.9031 H       
  32 H32            2.8987    -0.3084     2.0365 H       
  33 H33            5.0006     0.9451     2.0219 H       
  34 H34            5.7965     2.0636     0.0280 H       
  35 H35            5.5106     2.6657    -2.3522 H       
  36 H36            4.1898     2.5427    -4.3961 H       
  37 H37            2.0704     1.3008    -4.4532 H       
  38 H38            1.2378     0.1610    -2.4639 H       
  39 H39           -0.7818    -4.3570    -1.6365 H       
  40 H40           -0.7494    -6.8189    -1.6501 H       
  41 H41            3.5044    -6.7630    -1.3189 H       
  42 H42            3.4707    -4.3010    -1.3155 H       
  43 H43           -0.6076     3.8384     0.9158 H       
  44 H44           -0.6161     3.8481    -0.8641 H       
  45 H45           -3.0927     3.7274    -0.8530 H       
  46 H46           -3.0843     3.7177     0.9269 H       
  47 H47           -2.5187     5.1548     0.0420 H       
@<TRIPOS>BOND
   1    1    2 1
   2    1    6 2
   3    1    7 1
   4    2    3 2
   5    2   27 1
   6    3    4 1
   7    3    8 1
   8    4    5 1
   9    4   28 1
  10    4   29 1
  11    5   18 1
  12    5   30 1
  13    5   31 1
  14    7   25 1
  15    8    9 ar
  16    8   17 ar
  17    9   10 ar
  18    9   32 1
  19   10   11 ar
  20   10   33 1
  21   11   12 ar
  22   11   34 1
  23   12   13 ar
  24   12   17 ar
  25   13   14 ar
  26   13   35 1
  27   14   15 ar
  28   14   36 1
  29   15   16 ar
  30   15   37 1
  31   16   17 ar
  32   16   38 1
  33   18   19 ar
  34   18   23 ar
  35   19   20 ar
  36   19   39 1
  37   20   21 ar
  38   20   40 1
  39   21   22 ar
  40   21   24 1
  41   22   23 ar
  42   22   41 1
  43   23   42 1
  44   25   26 1
  45   25   43 1
  46   25   44 1
  47   26   45 1
  48   26   46 1
  49   26   47 1

#	End of record

