#	Name: ASD01420148
#	Creating user name:	WinNT
#	Creation time:	15. 06. 2019 19:20

#	Modifying user name:	WinNT
#	Modification time:	15. 06. 2019 19:20

#	Program:	/corina/corina34_cracker 3.40 0067  02.08.2006

@<TRIPOS>MOLECULE
ASD01420148
  48   51    0    0    0
SMALL
NO_CHARGES


@<TRIPOS>ATOM
   1 C1             2.3843     0.1885     1.0094 C.ar    
   2 C2             1.6634    -0.7925     0.3615 C.ar    
   3 C3             0.9274    -0.4958    -0.7776 C.ar    
   4 C4             0.9080     0.7889    -1.2768 C.ar    
   5 C5             2.3789     1.4892     0.5239 C.ar    
   6 O6             2.9714     2.6300     0.9334 O.3     
   7 C7             1.6332     1.7904    -0.6298 C.ar    
   8 C8             1.8372     3.2208    -0.8706 C.2     
   9 C9             2.6567     3.6547     0.1168 C.2     
  10 C10            1.2539     4.0432    -1.9907 C.3     
  11 C11            3.1339     5.0443     0.2752 C.ar    
  12 C12            2.2343     6.1081     0.1834 C.ar    
  13 C13            2.6833     7.4028     0.3322 C.ar    
  14 C14            4.0285     7.6498     0.5727 C.ar    
  15 C15            4.9266     6.5946     0.6647 C.ar    
  16 C16            4.4846     5.2967     0.5228 C.ar    
  17 O17            4.4673     8.9275     0.7179 O.3     
  18 Cl18           0.0286    -1.7477    -1.5768 Cl      
  19 C19            5.8632     9.1101     0.9633 C.3     
  20 C20            6.1663    10.6037     1.0977 C.3     
  21 C21            7.6347    10.7935     1.4835 C.3     
  22 N22            7.8962    12.2179     1.7293 N.3     
  23 C23            9.2997    12.4386     2.1030 C.3     
  24 C24            9.8942    13.8218     1.8303 C.3     
  25 C25            9.5795    13.3937     3.2651 C.3     
  26 O26            5.9133    11.2551    -0.1487 O.3     
  27 H27            2.9496    -0.0542     1.8970 H       
  28 H28            1.6717    -1.8024     0.7442 H       
  29 H29            0.3355     1.0189    -2.1632 H       
  30 H30            0.3425     4.5318    -1.6461 H       
  31 H31            1.9760     4.7984    -2.3011 H       
  32 H32            1.0213     3.3942    -2.8349 H       
  33 H33            1.1880     5.9169    -0.0044 H       
  34 H34            1.9881     8.2262     0.2613 H       
  35 H35            5.9720     6.7909     0.8519 H       
  36 H36            5.1829     4.4763     0.5990 H       
  37 H37            6.1399     8.5988     1.8854 H       
  38 H38            6.4353     8.6965     0.1328 H       
  39 H39            5.5292    11.0357     1.8694 H       
  40 H40            7.8495    10.2234     2.3873 H       
  41 H41            8.2719    10.4418     0.6720 H       
  42 H42            7.6436    12.7756     0.9272 H       
  43 H43            9.9574    11.5769     1.9898 H       
  44 H44           10.9432    13.8700     1.5381 H       
  45 H45            9.2440    14.5680     1.3737 H       
  46 H46            8.7222    13.8582     3.7524 H       
  47 H47           10.4214    13.1602     3.9168 H       
  48 H48            6.4466    10.9206    -0.8827 H       
@<TRIPOS>BOND
   1    1    2 ar
   2    1    5 ar
   3    1   27 1
   4    2    3 ar
   5    2   28 1
   6    3    4 ar
   7    3   18 1
   8    4    7 ar
   9    4   29 1
  10    5    7 ar
  11    5    6 1
  12    6    9 1
  13    7    8 1
  14    8    9 2
  15    8   10 1
  16    9   11 1
  17   10   30 1
  18   10   31 1
  19   10   32 1
  20   11   12 ar
  21   11   16 ar
  22   12   13 ar
  23   12   33 1
  24   13   14 ar
  25   13   34 1
  26   14   15 ar
  27   14   17 1
  28   15   16 ar
  29   15   35 1
  30   16   36 1
  31   17   19 1
  32   19   20 1
  33   19   37 1
  34   19   38 1
  35   20   21 1
  36   20   26 1
  37   20   39 1
  38   21   22 1
  39   21   40 1
  40   21   41 1
  41   22   23 1
  42   22   42 1
  43   23   24 1
  44   23   25 1
  45   23   43 1
  46   24   25 1
  47   24   44 1
  48   24   45 1
  49   25   46 1
  50   25   47 1
  51   26   48 1

#	End of record

