#	Name: ASD01814270
#	Creating user name:	WinNT
#	Creation time:	15. 06. 2019 19:32

#	Modifying user name:	WinNT
#	Modification time:	15. 06. 2019 19:32

#	Program:	/corina/corina34_cracker 3.40 0067  02.08.2006

@<TRIPOS>MOLECULE
ASD01814270
  47   50    0    0    0
SMALL
NO_CHARGES


@<TRIPOS>ATOM
   1 C1            -0.0168     1.3869     0.0097 C.ar    
   2 C2             0.0021    -0.0041     0.0020 C.ar    
   3 C3             1.1801    -0.6897    -0.0129 C.ar    
   4 C4             2.3948     0.0129    -0.0207 C.ar    
   5 C5             2.3717     1.4290    -0.0129 C.ar    
   6 C6             1.1455     2.1015     0.0024 C.ar    
   7 C7             3.6293    -0.6694    -0.0365 C.ar    
   8 C8             4.8031     0.0063    -0.0446 C.ar    
   9 C9             4.8359     1.4095    -0.0374 C.ar    
  10 C10            3.6406     2.1511    -0.0211 C.ar    
  11 C11            6.1026     2.1526    -0.0470 C.2     
  12 N12            6.0328     3.5041    -0.0399 N.am    
  13 C13            4.8302     4.1313    -0.0241 C.2     
  14 N14            3.6961     3.4935    -0.0158 N.2     
  15 C15            3.6424    -2.1763    -0.0442 C.3     
  16 C16            3.5087    -2.6726    -1.4608 C.ar    
  17 C17            4.6398    -2.8889    -2.2260 C.ar    
  18 C18            4.5199    -3.3439    -3.5249 C.ar    
  19 C19            3.2632    -3.5837    -4.0613 C.ar    
  20 C20            2.1298    -3.3658    -3.2915 C.ar    
  21 C21            2.2553    -2.9162    -1.9913 C.ar    
  22 O22            7.1745     1.5748    -0.0604 O.2     
  23 C23            7.2655     4.2957    -0.0490 C.3     
  24 C24            7.6735     4.5738    -1.4728 C.2     
  25 C25            7.8672     5.8071    -1.8697 C.2     
  26 O26            3.1425    -4.0308    -5.3390 O.3     
  27 C27            1.8178    -4.2562    -5.8251 C.3     
  28 H28           -0.9630     1.9076     0.0169 H       
  29 H29           -0.9305    -0.5488     0.0083 H       
  30 H30            1.1786    -1.7697    -0.0183 H       
  31 H31            1.1188     3.1811     0.0081 H       
  32 H32            5.7317    -0.5451    -0.0563 H       
  33 H33            4.8132     5.2111    -0.0182 H       
  34 H34            4.5813    -2.5336     0.3789 H       
  35 H35            2.8098    -2.5499     0.5518 H       
  36 H36            5.6179    -2.7018    -1.8080 H       
  37 H37            5.4037    -3.5124    -4.1223 H       
  38 H38            1.1503    -3.5517    -3.7069 H       
  39 H39            1.3733    -2.7468    -1.3915 H       
  40 H40            7.0957     5.2384     0.4711 H       
  41 H41            8.0574     3.7407     0.4541 H       
  42 H42            7.8062     3.7563    -2.1660 H       
  43 H43            7.7345     6.6246    -1.1765 H       
  44 H44            8.1596     6.0064    -2.8901 H       
  45 H45            1.3257    -5.0054    -5.2049 H       
  46 H46            1.2532    -3.3246    -5.7863 H       
  47 H47            1.8640    -4.6104    -6.8549 H       
@<TRIPOS>BOND
   1    1    2 ar
   2    1    6 ar
   3    1   28 1
   4    2    3 ar
   5    2   29 1
   6    3    4 ar
   7    3   30 1
   8    4    5 ar
   9    4    7 ar
  10    5    6 ar
  11    5   10 ar
  12    6   31 1
  13    7    8 ar
  14    7   15 1
  15    8    9 ar
  16    8   32 1
  17    9   10 ar
  18    9   11 1
  19   10   14 1
  20   11   12 am
  21   11   22 2
  22   12   13 1
  23   12   23 1
  24   13   14 2
  25   13   33 1
  26   15   16 1
  27   15   34 1
  28   15   35 1
  29   16   17 ar
  30   16   21 ar
  31   17   18 ar
  32   17   36 1
  33   18   19 ar
  34   18   37 1
  35   19   20 ar
  36   19   26 1
  37   20   21 ar
  38   20   38 1
  39   21   39 1
  40   23   24 1
  41   23   40 1
  42   23   41 1
  43   24   25 2
  44   24   42 1
  45   25   43 1
  46   25   44 1
  47   26   27 1
  48   27   45 1
  49   27   46 1
  50   27   47 1

#	End of record

