#	Name: ASD01948280
#	Creating user name:	WinNT
#	Creation time:	15. 06. 2019 20:14

#	Modifying user name:	WinNT
#	Modification time:	15. 06. 2019 20:14

#	Program:	/corina/corina34_cracker 3.40 0067  02.08.2006

@<TRIPOS>MOLECULE
ASD01948280
  45   48    0    0    0
SMALL
NO_CHARGES


@<TRIPOS>ATOM
   1 C1             1.4506     4.9311    -1.2939 C.ar    
   2 C2             1.9325     4.9371    -2.5911 C.ar    
   3 C3             3.0432     4.1830    -2.9229 C.ar    
   4 C4             3.6760     3.4201    -1.9602 C.ar    
   5 C5             3.1963     3.4108    -0.6576 C.ar    
   6 C6             2.0790     4.1706    -0.3256 C.ar    
   7 N7             4.6368     0.4982    -0.3136 N.am    
   8 C8             4.8802     1.8101    -0.0315 C.2     
   9 N9             3.8347     2.6390     0.3190 N.pl3   
  10 C10            5.6380    -0.3327    -0.6582 C.2     
  11 C11            6.9614     0.1434    -0.7331 C.2     
  12 C12            7.2233     1.4803    -0.4472 C.2     
  13 C13            6.1664     2.3176    -0.0930 C.2     
  14 N14            6.4062     3.6727     0.2001 N.am    
  15 I15            0.9768     6.0906    -4.0557 I       
  16 O16            5.3980    -1.5041    -0.9064 O.2     
  17 F17            1.6089     4.1649     0.9410 F       
  18 C18            3.2670    -0.0153    -0.2346 C.3     
  19 S19            7.9288     4.3004     0.0272 S.o2    
  20 O20            7.7884     5.6663     0.3931 O.2     
  21 O21            8.7570     3.4225     0.7773 O.2     
  22 C22            8.2821     4.1494    -1.7456 C.3     
  23 C23            9.6243     4.6864    -2.2467 C.3     
  24 C24            9.3863     3.1772    -2.1656 C.3     
  25 C25            8.0653    -0.7709    -1.1121 C.2     
  26 C26            7.9510    -2.0883    -1.4136 C.2     
  27 N27            9.3777    -0.4440    -1.2277 N.2     
  28 C28           10.0407    -1.5078    -1.5780 C.2     
  29 O29            9.1901    -2.5350    -1.7000 O.3     
  30 H30            0.5856     5.5246    -1.0369 H       
  31 H31            3.4165     4.1902    -3.9364 H       
  32 H32            4.5429     2.8312    -2.2211 H       
  33 H33            3.5422     2.6867     1.2426 H       
  34 H34            8.2316     1.8637    -0.4989 H       
  35 H35            5.6796     4.2392     0.5033 H       
  36 H36            2.7524     0.1762    -1.1762 H       
  37 H37            3.2917    -1.0886    -0.0457 H       
  38 H38            2.7379     0.4844     0.5768 H       
  39 H39            7.4214     4.2500    -2.4067 H       
  40 H40            9.6466     5.1398    -3.2377 H       
  41 H41           10.2950     5.1304    -1.5111 H       
  42 H42            9.9004     2.6283    -1.3767 H       
  43 H43            9.2521     2.6378    -3.1032 H       
  44 H44            7.0404    -2.6690    -1.4222 H       
  45 H45           11.1066    -1.5542    -1.7459 H       
@<TRIPOS>BOND
   1    1    2 ar
   2    1    6 ar
   3    1   30 1
   4    2    3 ar
   5    2   15 1
   6    3    4 ar
   7    3   31 1
   8    4    5 ar
   9    4   32 1
  10    5    6 ar
  11    5    9 1
  12    6   17 1
  13    7    8 1
  14    7   10 am
  15    7   18 1
  16    8    9 1
  17    8   13 2
  18    9   33 1
  19   10   11 1
  20   10   16 2
  21   11   12 2
  22   11   25 1
  23   12   13 1
  24   12   34 1
  25   13   14 1
  26   14   19 am
  27   14   35 1
  28   18   36 1
  29   18   37 1
  30   18   38 1
  31   19   20 2
  32   19   21 2
  33   19   22 1
  34   22   23 1
  35   22   24 1
  36   22   39 1
  37   23   24 1
  38   23   40 1
  39   23   41 1
  40   24   42 1
  41   24   43 1
  42   25   26 2
  43   25   27 1
  44   26   29 1
  45   26   44 1
  46   27   28 2
  47   28   29 1
  48   28   45 1

#	End of record

