#	Name: ASD00069121
#	Creating user name:	WinNT
#	Creation time:	15. 06. 2019 18:29

#	Modifying user name:	WinNT
#	Modification time:	15. 06. 2019 18:29

#	Program:	/corina/corina34_cracker 3.40 0067  02.08.2006

@<TRIPOS>MOLECULE
ASD00069121
  42   44    0    0    0
SMALL
NO_CHARGES


@<TRIPOS>ATOM
   1 C1            -0.0881     1.1826    -0.4265 C.2     
   2 N2            -0.0061    -0.0221     0.0979 N.2     
   3 C3             1.2322    -0.4848    -0.0588 C.2     
   4 C4             1.9624     0.4581    -0.7050 C.2     
   5 N5             1.1351     1.5119    -0.9395 N.pl3   
   6 C6            -1.2940     2.0285    -0.4603 C.2     
   7 O7            -1.2502     3.1298    -0.9749 O.2     
   8 N8            -2.4457     1.5821     0.0790 N.am    
   9 Br9            1.8657    -2.1695     0.5214 Br      
  10 C10           -3.5582     2.4291     0.1541 C.ar    
  11 C11           -4.8447     1.9064     0.0209 C.ar    
  12 C12           -5.9443     2.7471     0.0956 C.ar    
  13 C13           -5.7672     4.1027     0.3015 C.ar    
  14 C14           -4.4881     4.6261     0.4344 C.ar    
  15 C15           -3.3834     3.7879     0.3666 C.ar    
  16 N16           -5.0253     0.5319    -0.1889 N.3     
  17 C17           -4.4929     0.1245    -1.4954 C.3     
  18 C18           -4.5746    -1.3979    -1.6288 C.3     
  19 C19           -6.0342    -1.8398    -1.4911 C.3     
  20 C20           -6.5791    -1.3612    -0.1426 C.3     
  21 C21           -6.4393     0.1601    -0.0523 C.3     
  22 N22           -4.0614    -1.8032    -2.9442 N.3     
  23 N23           -4.3124     5.9991     0.6428 N.pl3   
  24 H24            3.0040     0.3860    -0.9809 H       
  25 H25            1.3689     2.3405    -1.3864 H       
  26 H26           -2.5039     0.6741     0.4151 H       
  27 H27           -6.9404     2.3428    -0.0075 H       
  28 H28           -6.6254     4.7559     0.3586 H       
  29 H29           -2.3888     4.1945     0.4749 H       
  30 H30           -5.0788     0.5904    -2.2876 H       
  31 H31           -3.4532     0.4411    -1.5786 H       
  32 H32           -3.9777    -1.8644    -0.8451 H       
  33 H33           -6.6242    -1.4045    -2.2976 H       
  34 H34           -6.0919    -2.9271    -1.5422 H       
  35 H35           -7.6305    -1.6358    -0.0568 H       
  36 H36           -6.0137    -1.8272     0.6645 H       
  37 H37           -6.8133     0.5025     0.9126 H       
  38 H38           -7.0161     0.6258    -0.8513 H       
  39 H39           -4.1050    -2.8050    -3.0563 H       
  40 H40           -4.5587    -1.3343    -3.6865 H       
  41 H41           -5.0841     6.5845     0.6942 H       
  42 H42           -3.4190     6.3651     0.7357 H       
@<TRIPOS>BOND
   1    1    2 2
   2    1    5 1
   3    1    6 1
   4    2    3 1
   5    3    4 2
   6    3    9 1
   7    4    5 1
   8    4   24 1
   9    5   25 1
  10    6    7 2
  11    6    8 am
  12    8   10 1
  13    8   26 1
  14   10   11 ar
  15   10   15 ar
  16   11   12 ar
  17   11   16 1
  18   12   13 ar
  19   12   27 1
  20   13   14 ar
  21   13   28 1
  22   14   15 ar
  23   14   23 1
  24   15   29 1
  25   16   17 1
  26   16   21 1
  27   17   18 1
  28   17   30 1
  29   17   31 1
  30   18   19 1
  31   18   22 1
  32   18   32 1
  33   19   20 1
  34   19   33 1
  35   19   34 1
  36   20   21 1
  37   20   35 1
  38   20   36 1
  39   21   37 1
  40   21   38 1
  41   22   39 1
  42   22   40 1
  43   23   41 1
  44   23   42 1

#	End of record

