#	Name: ASD03080219
#	Creating user name:	WinNT
#	Creation time:	15. 06. 2019 20:26

#	Modifying user name:	WinNT
#	Modification time:	15. 06. 2019 20:26

#	Program:	/corina/corina34_cracker 3.40 0067  02.08.2006

@<TRIPOS>MOLECULE
ASD03080219
  43   46    0    0    0
SMALL
NO_CHARGES


@<TRIPOS>ATOM
   1 C1            -0.0156     1.3018     0.0092 C.2     
   2 N2             0.0021    -0.0041     0.0020 N.2     
   3 N3             1.3347    -0.4327    -0.0130 N.pl3   
   4 C4             2.1288     0.6549    -0.0147 C.2     
   5 C5             1.3196     1.7572    -0.0011 C.2     
   6 C6             1.7627     3.1678     0.0018 C.2     
   7 C7             1.3290     4.1642    -0.8271 C.2     
   8 C8             2.0642     5.3013    -0.4042 C.2     
   9 N9             2.8272     4.9002     0.5840 N.2     
  10 O10            2.6684     3.7262     0.8244 O.3     
  11 C11            1.7877    -1.8258    -0.0244 C.3     
  12 C12            1.2714    -2.5421     1.2266 C.3     
  13 C13            1.6962    -4.0115     1.1790 C.3     
  14 N14            1.1485    -4.6419    -0.0289 N.3     
  15 C15            1.6674    -4.0011    -1.2440 C.3     
  16 C16            1.2417    -2.5314    -1.2688 C.3     
  17 C17            1.9856     6.6721    -0.9680 C.ar    
  18 C18            2.7775     7.6920    -0.4414 C.ar    
  19 C19            2.7002     8.9656    -0.9708 C.ar    
  20 C20            1.8395     9.2293    -2.0208 C.ar    
  21 C21            1.0521     8.2210    -2.5465 C.ar    
  22 C22            1.1249     6.9434    -2.0290 C.ar    
  23 C23            3.6357     0.6570    -0.0287 C.3     
  24 Cl24           3.8577     7.3620     0.8769 Cl      
  25 H25           -0.8982     1.9242     0.0169 H       
  26 H26            0.5978     4.1006    -1.6193 H       
  27 H27            2.8773    -1.8544    -0.0369 H       
  28 H28            1.6910    -2.0705     2.1152 H       
  29 H29            0.1837    -2.4786     1.2594 H       
  30 H30            2.7842    -4.0746     1.1602 H       
  31 H31            1.3179    -4.5277     2.0614 H       
  32 H32            1.3346    -5.6336    -0.0354 H       
  33 H33            2.7555    -4.0643    -1.2516 H       
  34 H34            1.2682    -4.5097    -2.1216 H       
  35 H35            0.1536    -2.4677    -1.2753 H       
  36 H36            1.6402    -2.0521    -2.1631 H       
  37 H37            3.3125     9.7567    -0.5639 H       
  38 H38            1.7818    10.2265    -2.4316 H       
  39 H39            0.3818     8.4329    -3.3664 H       
  40 H40            0.5123     6.1563    -2.4433 H       
  41 H41            3.9895     0.6627    -1.0596 H       
  42 H42            4.0026     1.5448     0.4864 H       
  43 H43            4.0049    -0.2352     0.4772 H       
@<TRIPOS>BOND
   1    1    2 2
   2    1    5 1
   3    1   25 1
   4    2    3 1
   5    3    4 1
   6    3   11 1
   7    4    5 2
   8    4   23 1
   9    5    6 1
  10    6    7 2
  11    6   10 1
  12    7    8 1
  13    7   26 1
  14    8    9 2
  15    8   17 1
  16    9   10 1
  17   11   12 1
  18   11   16 1
  19   11   27 1
  20   12   13 1
  21   12   28 1
  22   12   29 1
  23   13   14 1
  24   13   30 1
  25   13   31 1
  26   14   15 1
  27   14   32 1
  28   15   16 1
  29   15   33 1
  30   15   34 1
  31   16   35 1
  32   16   36 1
  33   17   18 ar
  34   17   22 ar
  35   18   19 ar
  36   18   24 1
  37   19   20 ar
  38   19   37 1
  39   20   21 ar
  40   20   38 1
  41   21   22 ar
  42   21   39 1
  43   22   40 1
  44   23   41 1
  45   23   42 1
  46   23   43 1

#	End of record

