#	Name: ASD01816458
#	Creating user name:	WinNT
#	Creation time:	15. 06. 2019 19:35

#	Modifying user name:	WinNT
#	Modification time:	15. 06. 2019 19:35

#	Program:	/corina/corina34_cracker 3.40 0067  02.08.2006

@<TRIPOS>MOLECULE
ASD01816458
  53   58    0    0    0
SMALL
NO_CHARGES


@<TRIPOS>ATOM
   1 C1            -0.0167     1.3813     0.0096 C.ar    
   2 C2             0.0021    -0.0041     0.0020 C.ar    
   3 C3             1.1983    -0.6909    -0.0131 C.ar    
   4 C4             2.4015     0.0060    -0.0209 C.ar    
   5 C5             2.3790     1.4106    -0.0132 C.ar    
   6 C6             1.1663     2.0916     0.0022 C.ar    
   7 N7             3.6053    -0.6771    -0.0356 N.pl3   
   8 C8             4.7970    -0.0585    -0.0432 C.2     
   9 C9             4.9000     1.3103    -0.0369 C.2     
  10 C10            3.6670     2.1302    -0.0217 C.2     
  11 C11            5.9971     2.2730    -0.0423 C.2     
  12 N12            5.4245     3.4961    -0.0311 N.am    
  13 N13            4.0322     3.3798    -0.0190 N.2     
  14 C14            6.1235     4.7035    -0.0313 C.ar    
  15 O15            7.1912     2.0231    -0.0538 O.2     
  16 C16            3.5779    -2.1419    -0.0427 C.3     
  17 C17            3.5551    -2.6370    -1.4659 C.ar    
  18 C18            4.7428    -2.8860    -2.1288 C.ar    
  19 C19            4.7252    -3.3394    -3.4333 C.ar    
  20 C20            3.5134    -3.5455    -4.0788 C.ar    
  21 C21            2.3226    -3.2950    -3.4104 C.ar    
  22 C22            2.3466    -2.8467    -2.1042 C.ar    
  23 N23            3.4923    -4.0052    -5.4030 N.pl3   
  24 C24            2.3873    -4.2462    -6.1443 C.2     
  25 C25            2.7936    -4.6752    -7.3616 C.2     
  26 C26            4.1927    -4.6975    -7.3656 C.2     
  27 N27            4.6123    -4.2906    -6.1946 N.2     
  28 N28            7.4474     4.6948    -0.0430 N.ar    
  29 C29            8.1469     5.8142    -0.0436 C.ar    
  30 C30            7.5153     7.0442    -0.0314 C.ar    
  31 C31            6.1285     7.0954    -0.0190 C.ar    
  32 C32            5.4234     5.9044    -0.0249 C.ar    
  33 Cl33           9.8813     5.7413    -0.0592 Cl      
  34 C34            3.9165     5.9093    -0.0118 C.3     
  35 F35            3.4546     7.2298     0.0055 F       
  36 F36            3.4381     5.2629    -1.1565 F       
  37 F37            3.4578     5.2399     1.1278 F       
  38 H38           -0.9602     1.9068     0.0170 H       
  39 H39           -0.9288    -0.5516     0.0083 H       
  40 H40            1.2004    -1.7709    -0.0186 H       
  41 H41            1.1506     3.1715     0.0081 H       
  42 H42            5.6983    -0.6535    -0.0543 H       
  43 H43            4.4657    -2.5243     0.4609 H       
  44 H44            2.6861    -2.4911     0.4778 H       
  45 H45            5.6851    -2.7255    -1.6262 H       
  46 H46            5.6532    -3.5331    -3.9509 H       
  47 H47            1.3785    -3.4541    -3.9101 H       
  48 H48            1.4206    -2.6516    -1.5838 H       
  49 H49            1.3642    -4.1196    -5.8223 H       
  50 H50            2.1515    -4.9516    -8.1848 H       
  51 H51            4.8186    -4.9950    -8.1939 H       
  52 H52            8.0950     7.9554    -0.0313 H       
  53 H53            5.6111     8.0433    -0.0093 H       
@<TRIPOS>BOND
   1    1    2 ar
   2    1    6 ar
   3    1   38 1
   4    2    3 ar
   5    2   39 1
   6    3    4 ar
   7    3   40 1
   8    4    5 ar
   9    4    7 1
  10    5    6 ar
  11    5   10 1
  12    6   41 1
  13    7    8 1
  14    7   16 1
  15    8    9 2
  16    8   42 1
  17    9   10 1
  18    9   11 1
  19   10   13 2
  20   11   12 am
  21   11   15 2
  22   12   13 1
  23   12   14 1
  24   14   28 ar
  25   14   32 ar
  26   16   17 1
  27   16   43 1
  28   16   44 1
  29   17   18 ar
  30   17   22 ar
  31   18   19 ar
  32   18   45 1
  33   19   20 ar
  34   19   46 1
  35   20   21 ar
  36   20   23 1
  37   21   22 ar
  38   21   47 1
  39   22   48 1
  40   23   24 1
  41   23   27 1
  42   24   25 2
  43   24   49 1
  44   25   26 1
  45   25   50 1
  46   26   27 2
  47   26   51 1
  48   28   29 ar
  49   29   30 ar
  50   29   33 1
  51   30   31 ar
  52   30   52 1
  53   31   32 ar
  54   31   53 1
  55   32   34 1
  56   34   35 1
  57   34   36 1
  58   34   37 1

#	End of record

