#	Name: ASD01814527
#	Creating user name:	WinNT
#	Creation time:	15. 06. 2019 19:32

#	Modifying user name:	WinNT
#	Modification time:	15. 06. 2019 19:32

#	Program:	/corina/corina34_cracker 3.40 0067  02.08.2006

@<TRIPOS>MOLECULE
ASD01814527
  36   37    0    0    0
SMALL
NO_CHARGES


@<TRIPOS>ATOM
   1 C1            -0.1551     6.7555    -2.5661 C.ar    
   2 C2            -1.3381     6.0719    -2.8106 C.ar    
   3 C3            -2.3787     6.7051    -3.4627 C.ar    
   4 C4            -2.2437     8.0187    -3.8722 C.ar    
   5 C5            -1.0669     8.7044    -3.6310 C.ar    
   6 C6            -0.0235     8.0790    -2.9739 C.ar    
   7 F7             1.1258     8.7487    -2.7378 F       
   8 N8             0.9015     6.1161    -1.9052 N.am    
   9 C9             1.8287     5.3410    -2.5027 C.2     
  10 N10            1.1497     6.1944    -0.5352 N.2     
  11 C11            2.1994     5.4989    -0.2046 C.2     
  12 C12            2.7306     4.8877    -1.4362 C.2     
  13 O13            1.9032     5.0704    -3.6898 O.2     
  14 C14            3.8361     4.0668    -1.5601 C.2     
  15 N15            4.1076     3.4750    -2.7413 N.pl3   
  16 C16            3.1268     2.5741    -3.3519 C.3     
  17 C17            5.3833     3.7330    -3.4138 C.3     
  18 O18            2.7124     5.3635     1.0452 O.3     
  19 C19            2.7549     5.7795     3.4255 C.3     
  20 C20            2.0368     6.0489     2.1016 C.3     
  21 H21           -1.4450     5.0456    -2.4916 H       
  22 H22           -3.2990     6.1730    -3.6532 H       
  23 H23           -3.0589     8.5105    -4.3820 H       
  24 H24           -0.9646     9.7303    -3.9526 H       
  25 H25            4.4822     3.8993    -0.7111 H       
  26 H26            2.2133     3.1266    -3.5715 H       
  27 H27            3.5351     2.1650    -4.2760 H       
  28 H28            2.9023     1.7603    -2.6623 H       
  29 H29            6.1217     3.0018    -3.0851 H       
  30 H30            5.2481     3.6533    -4.4925 H       
  31 H31            5.7292     4.7361    -3.1642 H       
  32 H32            2.7537     4.7085     3.6281 H       
  33 H33            3.7829     6.1358     3.3603 H       
  34 H34            2.2396     6.3024     4.2312 H       
  35 H35            2.0380     7.1199     1.8989 H       
  36 H36            1.0088     5.6926     2.1668 H       
@<TRIPOS>BOND
   1    1    2 ar
   2    1    8 1
   3    1    6 ar
   4    2    3 ar
   5    2   21 1
   6    3    4 ar
   7    3   22 1
   8    4    5 ar
   9    4   23 1
  10    5    6 ar
  11    5   24 1
  12    6    7 1
  13    8    9 am
  14    8   10 1
  15    9   13 2
  16    9   12 1
  17   10   11 2
  18   11   12 1
  19   11   18 1
  20   12   14 2
  21   14   15 1
  22   14   25 1
  23   15   16 1
  24   15   17 1
  25   16   26 1
  26   16   27 1
  27   16   28 1
  28   17   29 1
  29   17   30 1
  30   17   31 1
  31   18   20 1
  32   19   20 1
  33   19   32 1
  34   19   33 1
  35   19   34 1
  36   20   35 1
  37   20   36 1

#	End of record

