#	Name: ASD03082041
#	Creating user name:	WinNT
#	Creation time:	15. 06. 2019 20:27

#	Modifying user name:	WinNT
#	Modification time:	15. 06. 2019 20:27

#	Program:	/corina/corina34_cracker 3.40 0067  02.08.2006

@<TRIPOS>MOLECULE
ASD03082041
  50   52    0    0    0
SMALL
NO_CHARGES


@<TRIPOS>ATOM
   1 C1             0.0821     1.2318    -2.4455 C.3     
   2 C2             0.1782    -0.2936    -2.3724 C.3     
   3 N3             1.3845    -0.7457    -3.0759 N.4     
   4 C4             2.5790    -0.2167    -2.4069 C.3     
   5 C5             2.5753     1.3117    -2.4813 C.3     
   6 C6             1.3199     1.8480    -1.7873 C.3     
   7 C7             3.8201     1.8603    -1.7811 C.3     
   8 O8             3.8773     3.3009    -1.9540 O.3     
   9 C9             4.9208     3.9433    -1.3935 C.2     
  10 C10            5.0444     5.4069    -1.5282 C.ar    
  11 O11            5.7598     3.3170    -0.7771 O.2     
  12 C12            4.1610     6.1140    -2.3447 C.ar    
  13 C13            4.2811     7.4829    -2.4665 C.ar    
  14 C14            5.2748     8.1631    -1.7826 C.ar    
  15 C15            6.1583     7.4802    -0.9705 C.ar    
  16 C16            6.0503     6.0999    -0.8297 C.ar    
  17 C17            6.9962     5.3630     0.0408 C.ar    
  18 C18            8.3702     5.4657    -0.1739 C.ar    
  19 C19            9.2462     4.7774     0.6404 C.ar    
  20 C20            8.7638     3.9865     1.6677 C.ar    
  21 C21            7.4018     3.8807     1.8856 C.ar    
  22 C22            6.5162     4.5687     1.0815 C.ar    
  23 C23            1.4316    -2.2140    -3.0701 C.3     
  24 C24            1.3491    -0.2653    -4.4637 C.3     
  25 H25            0.0312     1.5437    -3.4887 H       
  26 H26           -0.8132     1.5657    -1.9210 H       
  27 H27            0.2288    -0.6044    -1.3288 H       
  28 H28           -0.7017    -0.7355    -2.8399 H       
  29 H29            2.5784    -0.5292    -1.3626 H       
  30 H30            3.4716    -0.6019    -2.8999 H       
  31 H31            2.5762     1.6252    -3.5252 H       
  32 H32            1.2838     2.9328    -1.8868 H       
  33 H33            1.3438     1.5782    -0.7315 H       
  34 H34            3.7731     1.6236    -0.7181 H       
  35 H35            4.7110     1.4066    -2.2153 H       
  36 H36            3.3839     5.5900    -2.8812 H       
  37 H37            3.5961     8.0275    -3.0994 H       
  38 H38            5.3595     9.2349    -1.8854 H       
  39 H39            6.9310     8.0179    -0.4410 H       
  40 H40            8.7479     6.0823    -0.9760 H       
  41 H41           10.3106     4.8562     0.4751 H       
  42 H42            9.4533     3.4491     2.3020 H       
  43 H43            7.0310     3.2614     2.6889 H       
  44 H44            5.4531     4.4854     1.2525 H       
  45 H45            0.5481    -2.6078    -3.5726 H       
  46 H46            2.3270    -2.5508    -3.5924 H       
  47 H47            1.4545    -2.5727    -2.0411 H       
  48 H48            1.3108     0.8240    -4.4703 H       
  49 H49            2.2446    -0.6006    -4.9871 H       
  50 H50            0.4658    -0.6630    -4.9635 H       
@<TRIPOS>BOND
   1    1    2 1
   2    1    6 1
   3    1   25 1
   4    1   26 1
   5    2    3 1
   6    2   27 1
   7    2   28 1
   8    3    4 1
   9    3   23 1
  10    3   24 1
  11    4    5 1
  12    4   29 1
  13    4   30 1
  14    5    6 1
  15    5    7 1
  16    5   31 1
  17    6   32 1
  18    6   33 1
  19    7    8 1
  20    7   34 1
  21    7   35 1
  22    8    9 1
  23    9   10 1
  24    9   11 2
  25   10   12 ar
  26   10   16 ar
  27   12   13 ar
  28   12   36 1
  29   13   14 ar
  30   13   37 1
  31   14   15 ar
  32   14   38 1
  33   15   16 ar
  34   15   39 1
  35   16   17 1
  36   17   18 ar
  37   17   22 ar
  38   18   19 ar
  39   18   40 1
  40   19   20 ar
  41   19   41 1
  42   20   21 ar
  43   20   42 1
  44   21   22 ar
  45   21   43 1
  46   22   44 1
  47   23   45 1
  48   23   46 1
  49   23   47 1
  50   24   48 1
  51   24   49 1
  52   24   50 1

#	End of record

