#	Name: ASD08070066
#	Creating user name:	WinNT
#	Creation time:	15. 06. 2019 21:14

#	Modifying user name:	WinNT
#	Modification time:	15. 06. 2019 21:14

#	Program:	/corina/corina34_cracker 3.40 0067  02.08.2006

@<TRIPOS>MOLECULE
ASD08070066
  44   44    0    0    0
SMALL
NO_CHARGES


@<TRIPOS>ATOM
   1 C1             0.1637     1.2977     0.4033 C.ar    
   2 C2             0.1471    -0.0781     0.3426 C.ar    
   3 C3             1.3625     1.9868     0.2642 C.ar    
   4 C4             2.5491     1.2912     0.0629 C.ar    
   5 C5             2.5409    -0.0842     0.0006 C.ar    
   6 C6             1.3376    -0.7810     0.1409 C.ar    
   7 C7             1.3244    -2.2555     0.0753 C.2     
   8 O8             2.3612    -2.8655    -0.1011 O.2     
   9 C9             0.0870    -4.7140    -1.4558 C.3     
  10 C10            0.1317    -4.3799     0.0366 C.3     
  11 N11            0.1629    -2.9256     0.2108 N.am    
  12 C12           -1.0921    -4.9408     0.7138 C.2     
  13 O13           -1.8596    -4.2016     1.2835 O.2     
  14 O14            1.3746     3.3425     0.3245 O.3     
  15 C15            0.2313    -6.2254    -1.6447 C.3     
  16 C16            3.8462     2.0435    -0.0878 C.3     
  17 O17           -1.3297    -6.2616     0.6841 O.3     
  18 C18            0.1200     3.9939     0.5330 C.3     
  19 C19           -2.5273    -6.7313     1.3573 C.3     
  20 C20            0.0619    -6.5729    -3.1250 C.3     
  21 C21            1.6175    -6.6684    -1.1722 C.3     
  22 H22           -0.7568     1.8419     0.5547 H       
  23 H23           -0.7849    -0.6130     0.4511 H       
  24 H24            3.4631    -0.6239    -0.1565 H       
  25 H25           -0.8644    -4.3848    -1.8735 H       
  26 H26            0.9039    -4.2043    -1.9668 H       
  27 H27            1.0256    -4.8183     0.4804 H       
  28 H28           -0.6523    -2.4451     0.4236 H       
  29 H29           -0.5327    -6.7391    -1.0612 H       
  30 H30            4.3040     2.1784     0.8922 H       
  31 H31            4.5217     1.4781    -0.7297 H       
  32 H32            3.6510     3.0183    -0.5348 H       
  33 H33           -0.3088     3.6625     1.4787 H       
  34 H34            0.2710     5.0731     0.5609 H       
  35 H35           -0.5594     3.7431    -0.2817 H       
  36 H36           -2.5992    -7.8143     1.2575 H       
  37 H37           -2.4781    -6.4662     2.4135 H       
  38 H38           -3.4038    -6.2659     0.9064 H       
  39 H39            0.8260    -6.0592    -3.7086 H       
  40 H40            0.1647    -7.6496    -3.2596 H       
  41 H41           -0.9256    -6.2573    -3.4616 H       
  42 H42            2.3807    -6.0883    -1.6911 H       
  43 H43            1.7047    -6.5049    -0.0981 H       
  44 H44            1.7547    -7.7273    -1.3910 H       
@<TRIPOS>BOND
   1    1    2 ar
   2    1    3 ar
   3    1   22 1
   4    2    6 ar
   5    2   23 1
   6    3    4 ar
   7    3   14 1
   8    4    5 ar
   9    4   16 1
  10    5    6 ar
  11    5   24 1
  12    6    7 1
  13    7    8 2
  14    7   11 am
  15    9   15 1
  16    9   10 1
  17    9   25 1
  18    9   26 1
  19   10   12 1
  20   10   11 1
  21   10   27 1
  22   11   28 1
  23   12   13 2
  24   12   17 1
  25   14   18 1
  26   15   20 1
  27   15   21 1
  28   15   29 1
  29   16   30 1
  30   16   31 1
  31   16   32 1
  32   17   19 1
  33   18   33 1
  34   18   34 1
  35   18   35 1
  36   19   36 1
  37   19   37 1
  38   19   38 1
  39   20   39 1
  40   20   40 1
  41   20   41 1
  42   21   42 1
  43   21   43 1
  44   21   44 1

#	End of record

