#	Name: ASD01810315
#	Creating user name:	WinNT
#	Creation time:	15. 06. 2019 19:24

#	Modifying user name:	WinNT
#	Modification time:	15. 06. 2019 19:24

#	Program:	/corina/corina34_cracker 3.40 0067  02.08.2006

@<TRIPOS>MOLECULE
ASD01810315
  43   46    0    0    0
SMALL
NO_CHARGES


@<TRIPOS>ATOM
   1 C1             0.1039     1.4772     0.3902 C.ar    
   2 C2             0.0850     0.0900     0.3821 C.ar    
   3 C3             1.2535    -0.6295     0.2402 C.ar    
   4 C4             2.4697     0.0389     0.1030 C.ar    
   5 C5             2.4841     1.4436     0.1117 C.ar    
   6 C6             1.2943     2.1571     0.2561 C.ar    
   7 N7             3.6452    -0.6678    -0.0386 N.pl3   
   8 C8             4.8373    -0.0735    -0.1722 C.2     
   9 C9             4.9781     1.2999    -0.1779 C.2     
  10 C10            3.7770     2.1382    -0.0343 C.2     
  11 O11            3.8480     3.3547    -0.0335 O.2     
  12 C12            3.5871    -2.1316    -0.0427 C.3     
  13 C13            3.4445    -2.6248    -1.4595 C.ar    
  14 C14            4.5665    -2.7659    -2.2562 C.ar    
  15 C15            4.4417    -3.2168    -3.5547 C.ar    
  16 C16            3.1827    -3.5303    -4.0626 C.ar    
  17 C17            2.0559    -3.3867    -3.2555 C.ar    
  18 C18            2.1929    -2.9400    -1.9568 C.ar    
  19 C19            3.0422    -4.0150    -5.4580 C.ar    
  20 C20            6.3049     1.9144    -0.3258 C.2     
  21 O21            6.4294     3.2567    -0.3299 O.3     
  22 O22            7.2902     1.2123    -0.4445 O.2     
  23 F23            1.2196    -1.9800     0.2346 F       
  24 C24            4.1625    -4.1611    -6.2716 C.ar    
  25 N25            4.0406    -4.5913    -7.5113 N.ar    
  26 C26            2.8653    -4.8992    -8.0290 C.ar    
  27 C27            1.7034    -4.7801    -7.2818 C.ar    
  28 C28            1.7832    -4.3375    -5.9741 C.ar    
  29 F29            2.7940    -5.3360    -9.3055 F       
  30 H30           -0.8197     2.0267     0.4976 H       
  31 H31           -0.8544    -0.4321     0.4884 H       
  32 H32            1.3063     3.2370     0.2623 H       
  33 H33            5.7184    -0.6889    -0.2786 H       
  34 H34            4.5030    -2.5328     0.3913 H       
  35 H35            2.7311    -2.4629     0.5452 H       
  36 H36            5.5419    -2.5226    -1.8615 H       
  37 H37            5.3183    -3.3259    -4.1760 H       
  38 H38            1.0776    -3.6279    -3.6443 H       
  39 H39            1.3203    -2.8286    -1.3303 H       
  40 H40            7.3222     3.6145    -0.4299 H       
  41 H41            5.1408    -3.9191    -5.8832 H       
  42 H42            0.7472    -5.0338    -7.7150 H       
  43 H43            0.8944    -4.2357    -5.3691 H       
@<TRIPOS>BOND
   1    1    2 ar
   2    1    6 ar
   3    1   30 1
   4    2    3 ar
   5    2   31 1
   6    3    4 ar
   7    3   23 1
   8    4    5 ar
   9    4    7 1
  10    5    6 ar
  11    5   10 1
  12    6   32 1
  13    7    8 1
  14    7   12 1
  15    8    9 2
  16    8   33 1
  17    9   10 1
  18    9   20 1
  19   10   11 2
  20   12   13 1
  21   12   34 1
  22   12   35 1
  23   13   14 ar
  24   13   18 ar
  25   14   15 ar
  26   14   36 1
  27   15   16 ar
  28   15   37 1
  29   16   17 ar
  30   16   19 1
  31   17   18 ar
  32   17   38 1
  33   18   39 1
  34   19   24 ar
  35   19   28 ar
  36   20   21 1
  37   20   22 2
  38   21   40 1
  39   24   25 ar
  40   24   41 1
  41   25   26 ar
  42   26   27 ar
  43   26   29 1
  44   27   28 ar
  45   27   42 1
  46   28   43 1

#	End of record

