#	Name: ASD07301049
#	Creating user name:	WinNT
#	Creation time:	15. 06. 2019 21:10

#	Modifying user name:	WinNT
#	Modification time:	15. 06. 2019 21:10

#	Program:	/corina/corina34_cracker 3.40 0067  02.08.2006

@<TRIPOS>MOLECULE
ASD07301049
  35   35    0    0    0
SMALL
NO_CHARGES


@<TRIPOS>ATOM
   1 N1             2.4005     2.8952     2.6832 N.pl3   
   2 N2             3.0042     1.8701     3.4202 N.2     
   3 C3             3.5153     1.0008     2.5929 C.2     
   4 C4             3.2544     1.4429     1.2783 C.2     
   5 C5             2.5567     2.6284     1.3773 C.2     
   6 B6             3.6794     0.7204    -0.0492 Du      
   7 O7             4.3991    -0.5025     0.0072 O.3     
   8 O8             3.3442     1.2896    -1.3061 O.3     
   9 C9             1.7092     4.0594     3.2427 C.3     
  10 F10            2.2762     4.3890     4.4785 F       
  11 F11            1.8372     5.1430     2.3671 F       
  12 C12            5.8163    -0.3479    -0.0910 C.3     
  13 C13            6.1745     0.2061    -1.4715 C.3     
  14 C14            6.2995     0.6222     0.9889 C.3     
  15 C15            6.4923    -1.7065     0.1044 C.3     
  16 O16            6.0658    -2.2769     1.3433 O.3     
  17 C17            6.1062    -2.6384    -1.0459 C.3     
  18 C18            8.0111    -1.5224     0.1238 C.3     
  19 H19            4.0457     0.1005     2.8660 H       
  20 H20            2.2013     3.2315     0.5549 H       
  21 H21            3.7119     0.8144    -2.0638 H       
  22 H22            0.6535     3.8246     3.3783 H       
  23 H23            5.7688     1.2124    -1.5756 H       
  24 H24            7.2586     0.2384    -1.5799 H       
  25 H25            5.7513    -0.4378    -2.2424 H       
  26 H26            6.1237     0.1875     1.9729 H       
  27 H27            7.3656     0.8085     0.8593 H       
  28 H28            5.7535     1.5618     0.9040 H       
  29 H29            6.2781    -1.7385     2.1180 H       
  30 H30            6.4315    -2.2033    -1.9909 H       
  31 H31            6.5877    -3.6063    -0.9067 H       
  32 H32            5.0242    -2.7696    -1.0597 H       
  33 H33            8.2861    -0.8584     0.9433 H       
  34 H34            8.4926    -2.4902     0.2630 H       
  35 H35            8.3364    -1.0872    -0.8212 H       
@<TRIPOS>BOND
   1    1    2 1
   2    1    5 1
   3    1    9 1
   4    2    3 2
   5    3    4 1
   6    3   19 1
   7    4    5 2
   8    4    6 1
   9    5   20 1
  10    6    7 1
  11    6    8 1
  12    7   12 1
  13    8   21 1
  14    9   10 1
  15    9   11 1
  16    9   22 1
  17   12   13 1
  18   12   14 1
  19   12   15 1
  20   13   23 1
  21   13   24 1
  22   13   25 1
  23   14   26 1
  24   14   27 1
  25   14   28 1
  26   15   16 1
  27   15   17 1
  28   15   18 1
  29   16   29 1
  30   17   30 1
  31   17   31 1
  32   17   32 1
  33   18   33 1
  34   18   34 1
  35   18   35 1

#	End of record

