#	Name: ASD01410618
#	Creating user name:	WinNT
#	Creation time:	15. 06. 2019 19:18

#	Modifying user name:	WinNT
#	Modification time:	15. 06. 2019 19:18

#	Program:	/corina/corina34_cracker 3.40 0067  02.08.2006

@<TRIPOS>MOLECULE
ASD01410618
  78   82    0    0    0
SMALL
NO_CHARGES


@<TRIPOS>ATOM
   1 C1             0.0837     1.3335    -2.5799 C.ar    
   2 C2             1.0164     1.9651    -3.3908 C.ar    
   3 C3             2.3620     1.7487    -3.1679 C.ar    
   4 N4             2.7672     0.9522    -2.1975 N.ar    
   5 C5             1.9088     0.3326    -1.4040 C.ar    
   6 C6             0.5406     0.5040    -1.5704 C.ar    
   7 O7             2.3695    -0.4778    -0.4182 O.3     
   8 C8             3.7099    -0.6930    -0.3430 C.ar    
   9 C9             4.5533     0.3300     0.0735 C.ar    
  10 C10            5.9154     0.1222     0.1535 C.ar    
  11 C11            6.4529    -1.1124    -0.1828 C.ar    
  12 C12            5.6068    -2.1495    -0.6042 C.ar    
  13 C13            4.2289    -1.9310    -0.6759 C.ar    
  14 N14            7.8289    -1.3213    -0.1028 N.am    
  15 C15            8.5962    -1.1862    -1.2025 C.2     
  16 C16            8.4410    -1.6878     1.1768 C.3     
  17 O17            9.7788    -1.4507    -1.1532 O.2     
  18 C18            7.9847    -0.7065    -2.4936 C.3     
  19 C19            8.3003    -0.5290     2.1794 C.3     
  20 C20            8.8414    -1.1785    -3.6701 C.3     
  21 C21            8.2205    -0.6915    -4.9809 C.3     
  22 C22            8.1562     0.8371    -4.9778 C.3     
  23 C23            7.2995     1.3091    -3.8013 C.3     
  24 C24            7.9204     0.8221    -2.4905 C.3     
  25 C25            7.5353     1.3242    -6.2886 C.3     
  26 C26            7.7004    -2.8939     1.7906 C.3     
  27 C27            7.6977    -2.6038     3.3121 C.3     
  28 C28            7.4792    -1.0714     3.3675 C.3     
  29 O29            8.4042    -4.1065     1.5139 O.3     
  30 C30            7.5804    -5.2740     1.5332 C.3     
  31 C31            8.4003    -6.4739     1.1346 C.ar    
  32 C32            9.0644    -7.2086     2.0991 C.ar    
  33 C33            9.8165    -8.3092     1.7335 C.ar    
  34 C34            9.9042    -8.6755     0.4034 C.ar    
  35 C35            9.2394    -7.9414    -0.5610 C.ar    
  36 C36            8.4838    -6.8433    -0.1949 C.ar    
  37 C37            6.1682    -3.4639    -0.9639 C.2     
  38 O38            7.3655    -3.6556    -0.8844 O.2     
  39 O39            5.3538    -4.4532    -1.3810 O.3     
  40 C40           -0.4335    -0.2037    -0.6641 C.3     
  41 F41           -1.7409     0.1301    -1.0333 F       
  42 F42           -0.2556    -1.5867    -0.7775 F       
  43 F43           -0.2081     0.1884     0.6597 F       
  44 H44           -0.9744     1.4893    -2.7303 H       
  45 H45            0.6933     2.6185    -4.1877 H       
  46 H46            3.0919     2.2375    -3.7963 H       
  47 H47            4.1407     1.2930     0.3358 H       
  48 H48            6.5644     0.9221     0.4781 H       
  49 H49            3.5712    -2.7243    -0.9992 H       
  50 H50            9.4937    -1.9298     1.0312 H       
  51 H51            6.9778    -1.1123    -2.5916 H       
  52 H52            9.2847    -0.2092     2.5210 H       
  53 H53            7.7767     0.3060     1.7139 H       
  54 H54            9.8483    -0.7727    -3.5722 H       
  55 H55            8.8872    -2.2676    -3.6723 H       
  56 H56            8.8309    -1.0278    -5.8191 H       
  57 H57            7.2136    -1.0973    -5.0789 H       
  58 H58            9.1631     1.2429    -4.8799 H       
  59 H59            7.2537     2.3982    -3.7991 H       
  60 H60            6.2926     0.9033    -3.8993 H       
  61 H61            7.3100     1.1584    -1.6524 H       
  62 H62            8.9272     1.2279    -2.3926 H       
  63 H63            6.5285     0.9184    -6.3865 H       
  64 H64            7.4895     2.4132    -6.2864 H       
  65 H65            8.1457     0.9879    -7.1267 H       
  66 H66            6.6802    -2.9487     1.4109 H       
  67 H67            6.8788    -3.1288     3.8040 H       
  68 H68            8.6547    -2.8740     3.7586 H       
  69 H69            7.8545    -0.6663     4.3072 H       
  70 H70            6.4232    -0.8319     3.2424 H       
  71 H71            7.1838    -5.4223     2.5376 H       
  72 H72            6.7556    -5.1483     0.8318 H       
  73 H73            8.9959    -6.9224     3.1382 H       
  74 H74           10.3359    -8.8828     2.4869 H       
  75 H75           10.4925    -9.5351     0.1177 H       
  76 H76            9.3082    -8.2274    -1.6001 H       
  77 H77            7.9644    -6.2698    -0.9483 H       
  78 H78            5.7681    -5.2975    -1.6058 H       
@<TRIPOS>BOND
   1    1    2 ar
   2    1    6 ar
   3    1   44 1
   4    2    3 ar
   5    2   45 1
   6    3    4 ar
   7    3   46 1
   8    4    5 ar
   9    5    6 ar
  10    5    7 1
  11    6   40 1
  12    7    8 1
  13    8    9 ar
  14    8   13 ar
  15    9   10 ar
  16    9   47 1
  17   10   11 ar
  18   10   48 1
  19   11   12 ar
  20   11   14 1
  21   12   13 ar
  22   12   37 1
  23   13   49 1
  24   14   15 am
  25   14   16 1
  26   15   17 2
  27   15   18 1
  28   16   19 1
  29   16   26 1
  30   16   50 1
  31   18   20 1
  32   18   24 1
  33   18   51 1
  34   19   28 1
  35   19   52 1
  36   19   53 1
  37   20   21 1
  38   20   54 1
  39   20   55 1
  40   21   22 1
  41   21   56 1
  42   21   57 1
  43   22   23 1
  44   22   25 1
  45   22   58 1
  46   23   24 1
  47   23   59 1
  48   23   60 1
  49   24   61 1
  50   24   62 1
  51   25   63 1
  52   25   64 1
  53   25   65 1
  54   26   27 1
  55   26   29 1
  56   26   66 1
  57   27   28 1
  58   27   67 1
  59   27   68 1
  60   28   69 1
  61   28   70 1
  62   29   30 1
  63   30   31 1
  64   30   71 1
  65   30   72 1
  66   31   32 ar
  67   31   36 ar
  68   32   33 ar
  69   32   73 1
  70   33   34 ar
  71   33   74 1
  72   34   35 ar
  73   34   75 1
  74   35   36 ar
  75   35   76 1
  76   36   77 1
  77   37   38 2
  78   37   39 1
  79   39   78 1
  80   40   41 1
  81   40   42 1
  82   40   43 1

#	End of record

