#	Name: ASD09740638
#	Creating user name:	WinNT
#	Creation time:	15. 06. 2019 21:23

#	Modifying user name:	WinNT
#	Modification time:	15. 06. 2019 21:23

#	Program:	/corina/corina34_cracker 3.40 0067  02.08.2006

@<TRIPOS>MOLECULE
ASD09740638
  57   60    0    0    0
SMALL
NO_CHARGES


@<TRIPOS>ATOM
   1 N1             0.6617     0.9681    -1.4977 N.2     
   2 N2             0.5753    -0.2716    -1.2830 N.2     
   3 C3             1.8558     1.4744    -1.6529 C.2     
   4 S4             3.0244     0.1612    -1.4990 S.3     
   5 C5             1.6855    -0.9568    -1.2319 C.2     
   6 C6             2.1719     2.8949    -1.9115 C.ar    
   7 C7             1.1448     3.8302    -2.0092 C.ar    
   8 C8             3.5022     3.3005    -2.0523 C.ar    
   9 C9             3.8028     4.6238    -2.2936 C.ar    
  10 C10            2.7873     5.5633    -2.3986 C.ar    
  11 C11            1.4487     5.1685    -2.2533 C.ar    
  12 O12            3.0888     6.8646    -2.6357 O.3     
  13 C13            4.4736     7.2171    -2.6518 C.3     
  14 C14            5.0508     6.9534    -4.0440 C.3     
  15 C15            4.6263     8.7003    -2.3089 C.3     
  16 C16            0.3984     6.1358    -2.3616 C.1     
  17 N17           -0.4349     6.9032    -2.4475 N.1     
  18 C18            1.8005    -2.4109    -0.9923 C.ar    
  19 C19            0.6506    -3.1807    -0.7951 C.ar    
  20 C20            0.7647    -4.5376    -0.5724 C.ar    
  21 C21            2.0170    -5.1312    -0.5449 C.ar    
  22 C22            3.1574    -4.3740    -0.7391 C.ar    
  23 C23            3.0564    -3.0176    -0.9684 C.ar    
  24 C24           -0.8084    -2.7786    -0.7781 C.3     
  25 C25           -1.5922    -4.0963    -0.9563 C.3     
  26 C26           -0.6105    -5.1437    -0.3894 C.3     
  27 N27           -0.8790    -5.3752     1.0320 N.am    
  28 C28           -0.5292    -6.5453     1.6021 C.2     
  29 O29           -0.0744    -7.4424     0.9189 O.2     
  30 N30           -0.6836    -6.7210     2.9294 N.am    
  31 C31           -0.1960    -7.9462     3.5677 C.3     
  32 C32           -1.3391    -5.6869     3.7338 C.3     
  33 H33            0.1165     3.5197    -1.8967 H       
  34 H34            4.2975     2.5743    -1.9713 H       
  35 H35            4.8327     4.9306    -2.4010 H       
  36 H36            5.0098     6.6171    -1.9166 H       
  37 H37            6.1070     7.2223    -4.0563 H       
  38 H38            4.9420     5.8967    -4.2883 H       
  39 H39            4.5146     7.5534    -4.7793 H       
  40 H40            4.2150     8.8881    -1.3171 H       
  41 H41            5.6825     8.9692    -2.3212 H       
  42 H42            4.0900     9.3003    -3.0442 H       
  43 H43            2.1027    -6.1935    -0.3701 H       
  44 H44            4.1285    -4.8460    -0.7157 H       
  45 H45            3.9470    -2.4258    -1.1200 H       
  46 H46           -1.0615    -2.3137     0.1748 H       
  47 H47           -1.0225    -2.0968    -1.6012 H       
  48 H48           -2.5163    -4.0786    -0.3786 H       
  49 H49           -1.7961    -4.2865    -2.0100 H       
  50 H50           -0.6898    -6.0770    -0.9470 H       
  51 H51           -1.3086    -4.6863     1.5629 H       
  52 H52            0.8348    -7.8019     3.8912 H       
  53 H53           -0.8188    -8.1784     4.4316 H       
  54 H54           -0.2413    -8.7699     2.8552 H       
  55 H55           -1.7141    -4.9004     3.0789 H       
  56 H56           -2.1698    -6.1275     4.2851 H       
  57 H57           -0.6210    -5.2633     4.4360 H       
@<TRIPOS>BOND
   1    1    2 1
   2    1    3 2
   3    2    5 2
   4    3    4 1
   5    3    6 1
   6    4    5 1
   7    5   18 1
   8    6    7 ar
   9    6    8 ar
  10    7   11 ar
  11    7   33 1
  12    8    9 ar
  13    8   34 1
  14    9   10 ar
  15    9   35 1
  16   10   11 ar
  17   10   12 1
  18   11   16 1
  19   12   13 1
  20   13   14 1
  21   13   15 1
  22   13   36 1
  23   14   37 1
  24   14   38 1
  25   14   39 1
  26   15   40 1
  27   15   41 1
  28   15   42 1
  29   16   17 3
  30   18   19 ar
  31   18   23 ar
  32   19   20 ar
  33   19   24 1
  34   20   21 ar
  35   20   26 1
  36   21   22 ar
  37   21   43 1
  38   22   23 ar
  39   22   44 1
  40   23   45 1
  41   24   25 1
  42   24   46 1
  43   24   47 1
  44   25   26 1
  45   25   48 1
  46   25   49 1
  47   26   27 1
  48   26   50 1
  49   27   28 am
  50   27   51 1
  51   28   29 2
  52   28   30 am
  53   30   31 1
  54   30   32 1
  55   31   52 1
  56   31   53 1
  57   31   54 1
  58   32   55 1
  59   32   56 1
  60   32   57 1

#	End of record

