#	Name: ASD03090746
#	Creating user name:	WinNT
#	Creation time:	15. 06. 2019 20:29

#	Modifying user name:	WinNT
#	Modification time:	15. 06. 2019 20:29

#	Program:	/corina/corina34_cracker 3.40 0067  02.08.2006

@<TRIPOS>MOLECULE
ASD03090746
  45   46    0    0    0
SMALL
NO_CHARGES


@<TRIPOS>ATOM
   1 O1             0.0459     0.0546     1.3604 O.2     
   2 C2             0.2253     0.6462     0.3170 C.2     
   3 C3             1.3573     1.6336     0.1957 C.3     
   4 C4             2.2542     1.8339     1.4189 C.3     
   5 C5             2.7828     1.0779     0.1982 C.3     
   6 C6             2.9499    -0.4378     0.3238 C.3     
   7 C7             3.8186     1.7860    -0.6773 C.3     
   8 C8             2.7937     3.2190     1.6668 C.2     
   9 C9             2.4047     3.8947     2.7195 C.2     
  10 C10            1.3180     3.3460     3.6078 C.3     
  11 C11            3.0437     5.2208     3.0421 C.3     
  12 N12           -0.5843     0.4165    -0.7357 N.am    
  13 C13           -1.6810    -0.5479    -0.6196 C.3     
  14 C14           -2.4399    -0.6193    -1.9462 C.3     
  15 C15           -3.5681    -1.6113    -1.8268 C.ar    
  16 C16           -4.8149    -1.1921    -1.4018 C.ar    
  17 C17           -5.8498    -2.1021    -1.2922 C.ar    
  18 C18           -5.6379    -3.4311    -1.6080 C.ar    
  19 C19           -4.3913    -3.8500    -2.0339 C.ar    
  20 C20           -3.3576    -2.9393    -2.1476 C.ar    
  21 H21            1.1571     2.5037    -0.4295 H       
  22 H22            2.0256     1.2514     2.3114 H       
  23 H23            2.0176    -0.8781     0.6773 H       
  24 H24            3.2037    -0.8572    -0.6497 H       
  25 H25            3.7476    -0.6578     1.0333 H       
  26 H26            4.6997     2.0205    -0.0800 H       
  27 H27            4.1027     1.1341    -1.5034 H       
  28 H28            3.3914     2.7078    -1.0721 H       
  29 H29            3.5012     3.6545     0.9767 H       
  30 H30            1.0350     2.3513     3.2635 H       
  31 H31            1.6830     3.2853     4.6331 H       
  32 H32            0.4502     4.0044     3.5694 H       
  33 H33            2.4897     6.0203     2.5502 H       
  34 H34            3.0287     5.3786     4.1205 H       
  35 H35            4.0749     5.2227     2.6889 H       
  36 H36           -0.4408     0.8896    -1.5702 H       
  37 H37           -1.2764    -1.5310    -0.3791 H       
  38 H38           -2.3610    -0.2314     0.1714 H       
  39 H39           -2.8445     0.3639    -2.1867 H       
  40 H40           -1.7600    -0.9358    -2.7372 H       
  41 H41           -4.9805    -0.1538    -1.1550 H       
  42 H42           -6.8237    -1.7747    -0.9595 H       
  43 H43           -6.4462    -4.1421    -1.5217 H       
  44 H44           -4.2257    -4.8884    -2.2803 H       
  45 H45           -2.3837    -3.2666    -2.4803 H       
@<TRIPOS>BOND
   1    1    2 2
   2    2    3 1
   3    2   12 am
   4    3    4 1
   5    3    5 1
   6    3   21 1
   7    4    5 1
   8    4    8 1
   9    4   22 1
  10    5    6 1
  11    5    7 1
  12    6   23 1
  13    6   24 1
  14    6   25 1
  15    7   26 1
  16    7   27 1
  17    7   28 1
  18    8    9 2
  19    8   29 1
  20    9   10 1
  21    9   11 1
  22   10   30 1
  23   10   31 1
  24   10   32 1
  25   11   33 1
  26   11   34 1
  27   11   35 1
  28   12   13 1
  29   12   36 1
  30   13   14 1
  31   13   37 1
  32   13   38 1
  33   14   15 1
  34   14   39 1
  35   14   40 1
  36   15   16 ar
  37   15   20 ar
  38   16   17 ar
  39   16   41 1
  40   17   18 ar
  41   17   42 1
  42   18   19 ar
  43   18   43 1
  44   19   20 ar
  45   19   44 1
  46   20   45 1

#	End of record

