#	Name: ASD09740100
#	Creating user name:	WinNT
#	Creation time:	15. 06. 2019 21:22

#	Modifying user name:	WinNT
#	Modification time:	15. 06. 2019 21:22

#	Program:	/corina/corina34_cracker 3.40 0067  02.08.2006

@<TRIPOS>MOLECULE
ASD09740100
  51   53    0    0    0
SMALL
NO_CHARGES


@<TRIPOS>ATOM
   1 O1            -0.0144     1.2085     0.0087 O.3     
   2 N2             0.0021    -0.0041     0.0020 N.2     
   3 C3             1.2414     1.6827    -0.0008 C.2     
   4 N4             2.0457     0.6355    -0.0141 N.2     
   5 C5             1.2344    -0.4424    -0.0121 C.2     
   6 C6             1.6618    -1.8647    -0.0231 C.ar    
   7 C7             1.6459     3.1031     0.0023 C.ar    
   8 C8             0.7201    -2.8958    -0.0197 C.ar    
   9 C9             3.0160    -2.2058    -0.0429 C.ar    
  10 C10            3.3759    -3.5421    -0.0532 C.ar    
  11 N11            2.4638    -4.4899    -0.0449 N.ar    
  12 C12            1.1655    -4.2141    -0.0308 C.ar    
  13 C13            2.9998     3.4452    -0.0092 C.ar    
  14 C14            3.3758     4.7714    -0.0064 C.ar    
  15 C15            2.4113     5.7692     0.0074 C.ar    
  16 C16            1.0586     5.4348     0.0185 C.ar    
  17 C17            0.6750     4.1071     0.0108 C.ar    
  18 C18            0.1806    -5.3211    -0.0215 C.2     
  19 N19            0.6047    -6.6004    -0.0274 N.am    
  20 O20           -1.0094    -5.0756    -0.0086 O.2     
  21 C21           -0.3691    -7.6949    -0.0182 C.3     
  22 C22            0.3696    -9.0348    -0.0274 C.3     
  23 O23            1.1111    -9.1783     1.1856 O.3     
  24 O24            2.7869     7.0750     0.0106 O.3     
  25 C25            4.4164     8.8597     0.0048 C.3     
  26 C26            4.1898     7.3466    -0.0008 C.3     
  27 O27            0.1158     6.4149     0.0320 O.3     
  28 C28           -2.1584     7.2319     0.0572 C.3     
  29 C29           -1.2515     5.9998     0.0428 C.3     
  30 H30           -0.3368    -2.6737    -0.0083 H       
  31 H31            3.7733    -1.4359    -0.0506 H       
  32 H32            4.4218    -3.8109    -0.0685 H       
  33 H33            3.7523     2.6706    -0.0200 H       
  34 H34            4.4232     5.0346    -0.0146 H       
  35 H35           -0.3730     3.8465     0.0190 H       
  36 H36            1.5546    -6.7965    -0.0377 H       
  37 H37           -0.9850    -7.6258     0.8785 H       
  38 H38           -1.0039    -7.6239    -0.9014 H       
  39 H39           -0.3525    -9.8472    -0.1102 H       
  40 H40            1.0522    -9.0675    -0.8766 H       
  41 H41            1.6055   -10.0070     1.2487 H       
  42 H42            5.4865     9.0669    -0.0039 H       
  43 H43            3.9539     9.2996    -0.8788 H       
  44 H44            3.9701     9.2906     0.9011 H       
  45 H45            4.6522     6.9067     0.8828 H       
  46 H46            4.6360     6.9157    -0.8971 H       
  47 H47           -3.2014     6.9153     0.0655 H       
  48 H48           -1.9517     7.8249     0.9482 H       
  49 H49           -1.9684     7.8334    -0.8317 H       
  50 H50           -1.4582     5.4069    -0.8481 H       
  51 H51           -1.4416     5.3983     0.9318 H       
@<TRIPOS>BOND
   1    1    2 1
   2    1    3 1
   3    2    5 2
   4    3    4 2
   5    3    7 1
   6    4    5 1
   7    5    6 1
   8    6    8 ar
   9    6    9 ar
  10    7   13 ar
  11    7   17 ar
  12    8   12 ar
  13    8   30 1
  14    9   10 ar
  15    9   31 1
  16   10   11 ar
  17   10   32 1
  18   11   12 ar
  19   12   18 1
  20   13   14 ar
  21   13   33 1
  22   14   15 ar
  23   14   34 1
  24   15   16 ar
  25   15   24 1
  26   16   17 ar
  27   16   27 1
  28   17   35 1
  29   18   19 am
  30   18   20 2
  31   19   21 1
  32   19   36 1
  33   21   22 1
  34   21   37 1
  35   21   38 1
  36   22   23 1
  37   22   39 1
  38   22   40 1
  39   23   41 1
  40   24   26 1
  41   25   26 1
  42   25   42 1
  43   25   43 1
  44   25   44 1
  45   26   45 1
  46   26   46 1
  47   27   29 1
  48   28   29 1
  49   28   47 1
  50   28   48 1
  51   28   49 1
  52   29   50 1
  53   29   51 1

#	End of record

