#	Name: ASD09116168
#	Creating user name:	WinNT
#	Creation time:	15. 06. 2019 21:20

#	Modifying user name:	WinNT
#	Modification time:	15. 06. 2019 21:20

#	Program:	/corina/corina34_cracker 3.40 0067  02.08.2006

@<TRIPOS>MOLECULE
ASD09116168
  87   94    0    0    0
SMALL
NO_CHARGES


@<TRIPOS>ATOM
   1 N1            -0.0266     1.4808     0.1052 N.2     
   2 C2            -0.0140     0.0097     0.1910 C.3     
   3 C3             1.2225     1.8593     0.0812 C.2     
   4 N4             2.0842     0.8235     0.1404 N.2     
   5 C5             1.4646    -0.3259     0.2084 C.2     
   6 N6             1.6191     3.1791     0.0037 N.pl3   
   7 C7             2.9773     3.5091     0.0982 C.ar    
   8 C8             3.4711     4.6162    -0.5781 C.ar    
   9 C9             3.8284     2.7317     0.8732 C.ar    
  10 C10            5.1682     3.0575     0.9663 C.ar    
  11 C11            5.6632     4.1637     0.2837 C.ar    
  12 C12            4.8106     4.9422    -0.4859 C.ar    
  13 N13            2.0277    -1.5620     0.2792 N.pl3   
  14 C14           -0.6794    -0.4545     1.4610 C.ar    
  15 C15           -1.3060     0.4710     2.2703 C.ar    
  16 N16           -0.6535    -1.7438     1.7718 N.ar    
  17 C17           -1.2178    -2.1775     2.8601 C.ar    
  18 C18           -1.8706    -1.3094     3.7432 C.ar    
  19 C19           -1.9269     0.0448     3.4546 C.ar    
  20 C20           -1.2561    -3.6226     3.3224 C.3     
  21 C21           -0.6299    -3.6381     4.7321 C.3     
  22 C22           -1.3465    -2.6164     5.6176 C.3     
  23 N23           -2.4195    -1.9398     4.8627 N.3     
  24 C24           -3.4060    -2.9456     4.4220 C.3     
  25 C25           -2.6077     1.0019     4.3598 C.ar    
  26 C26           -1.9564     2.1655     4.7655 C.ar    
  27 N27            7.0212     4.4951     0.3778 N.3     
  28 C28            7.6617     4.4705    -0.9435 C.3     
  29 C29            9.1676     4.6931    -0.7861 C.3     
  30 C30            9.4107     6.0429    -0.1054 C.3     
  31 C31            8.6931     6.0602     1.2471 C.3     
  32 C32            7.2009     5.7980     1.0308 C.3     
  33 N33           10.8522     6.2359     0.1012 N.3     
  34 C34           -2.5951     3.0528     5.6077 C.ar    
  35 C35           -3.8793     2.7892     6.0491 C.ar    
  36 C36           -4.5306     1.6360     5.6498 C.ar    
  37 C37           -3.9037     0.7441     4.8036 C.ar    
  38 F38            5.9966     2.3022     1.7203 F       
  39 C39           -2.7469    -3.9758     3.5022 C.3     
  40 C40           11.1321     7.5723     0.6447 C.3     
  41 C41           12.6319     7.7046     0.9195 C.3     
  42 N42           13.3773     7.4793    -0.3268 N.3     
  43 C43           13.0975     6.1429    -0.8702 C.3     
  44 C44           11.5977     6.0107    -1.1450 C.3     
  45 C45           14.8189     7.6723    -0.1201 C.3     
  46 H46           -0.5005    -0.4304    -0.6795 H       
  47 H47            0.9574     3.8781    -0.1163 H       
  48 H48            2.8080     5.2228    -1.1770 H       
  49 H49            3.4431     1.8732     1.4032 H       
  50 H50            5.1948     5.8012    -1.0159 H       
  51 H51            2.9932    -1.6557     0.2826 H       
  52 H52            1.4639    -2.3499     0.3264 H       
  53 H53           -1.3183     1.5152     1.9946 H       
  54 H54           -0.7413    -4.2919     2.6331 H       
  55 H55           -0.7354    -4.6325     5.1658 H       
  56 H56            0.4272    -3.3816     4.6632 H       
  57 H57           -1.7789    -3.1268     6.4781 H       
  58 H58           -0.6276    -1.8740     5.9643 H       
  59 H59           -3.8166    -3.4532     5.2948 H       
  60 H60           -4.2123    -2.4470     3.8841 H       
  61 H61           -0.9536     2.3721     4.4217 H       
  62 H62            7.4847     3.5038    -1.4149 H       
  63 H63            7.2409     5.2603    -1.5657 H       
  64 H64            9.5913     3.8959    -0.1753 H       
  65 H65            9.6404     4.6903    -1.7681 H       
  66 H66            9.0215     6.8434    -0.7345 H       
  67 H67            9.1094     5.2846     1.8899 H       
  68 H68            8.8270     7.0342     1.7177 H       
  69 H69            6.7823     6.5816     0.3993 H       
  70 H70            6.6894     5.7955     1.9933 H       
  71 H71           -2.0912     3.9545     5.9229 H       
  72 H72           -4.3752     3.4863     6.7084 H       
  73 H73           -5.5332     1.4353     5.9976 H       
  74 H74           -4.4131    -0.1559     4.4924 H       
  75 H75           -3.2425    -3.9662     2.5315 H       
  76 H76           -2.8345    -4.9677     3.9456 H       
  77 H77           10.8264     8.3298    -0.0771 H       
  78 H78           10.5786     7.7104     1.5735 H       
  79 H79           12.8459     8.7051     1.2955 H       
  80 H80           12.9322     6.9649     1.6617 H       
  81 H81           13.6510     6.0049    -1.7990 H       
  82 H82           13.4031     5.3855    -0.1484 H       
  83 H83           11.3837     5.0102    -1.5210 H       
  84 H84           11.2974     6.7504    -1.8872 H       
  85 H85           15.1755     6.9690     0.6324 H       
  86 H86           15.3467     7.4995    -1.0580 H       
  87 H87           15.0041     8.6917     0.2185 H       
@<TRIPOS>BOND
   1    1    2 1
   2    1    3 2
   3    2   14 1
   4    2    5 1
   5    2   46 1
   6    3    4 1
   7    3    6 1
   8    4    5 2
   9    5   13 1
  10    6    7 1
  11    6   47 1
  12    7    8 ar
  13    7    9 ar
  14    8   12 ar
  15    8   48 1
  16    9   10 ar
  17    9   49 1
  18   10   11 ar
  19   10   38 1
  20   11   12 ar
  21   11   27 1
  22   12   50 1
  23   13   51 1
  24   13   52 1
  25   14   15 ar
  26   14   16 ar
  27   15   19 ar
  28   15   53 1
  29   16   17 ar
  30   17   18 ar
  31   17   20 1
  32   18   19 ar
  33   18   23 1
  34   19   25 1
  35   20   21 1
  36   20   39 1
  37   20   54 1
  38   21   22 1
  39   21   55 1
  40   21   56 1
  41   22   23 1
  42   22   57 1
  43   22   58 1
  44   23   24 1
  45   24   39 1
  46   24   59 1
  47   24   60 1
  48   25   26 ar
  49   25   37 ar
  50   26   34 ar
  51   26   61 1
  52   27   28 1
  53   27   32 1
  54   28   29 1
  55   28   62 1
  56   28   63 1
  57   29   30 1
  58   29   64 1
  59   29   65 1
  60   30   31 1
  61   30   33 1
  62   30   66 1
  63   31   32 1
  64   31   67 1
  65   31   68 1
  66   32   69 1
  67   32   70 1
  68   33   40 1
  69   33   44 1
  70   34   35 ar
  71   34   71 1
  72   35   36 ar
  73   35   72 1
  74   36   37 ar
  75   36   73 1
  76   37   74 1
  77   39   75 1
  78   39   76 1
  79   40   41 1
  80   40   77 1
  81   40   78 1
  82   41   42 1
  83   41   79 1
  84   41   80 1
  85   42   43 1
  86   42   45 1
  87   43   44 1
  88   43   81 1
  89   43   82 1
  90   44   83 1
  91   44   84 1
  92   45   85 1
  93   45   86 1
  94   45   87 1

#	End of record

