#	Name: ASD08178222
#	Creating user name:	WinNT
#	Creation time:	15. 06. 2019 21:18

#	Modifying user name:	WinNT
#	Modification time:	15. 06. 2019 21:18

#	Program:	/corina/corina34_cracker 3.40 0067  02.08.2006

@<TRIPOS>MOLECULE
ASD08178222
  61   63    0    0    0
SMALL
NO_CHARGES


@<TRIPOS>ATOM
   1 C1            -0.0192     1.5027     0.0216 C.ar    
   2 C2             0.0009    -0.0042     0.0178 C.3     
   3 C3            -0.8031    -0.5280     1.2095 C.3     
   4 C4            -0.7827    -2.0578     1.2056 C.3     
   5 C5            -1.5867    -2.5816     2.3973 C.3     
   6 C6            -1.5666    -4.0885     2.3935 C.2     
   7 N7            -0.6917    -4.8423     2.9800 N.2     
   8 N8            -0.8485    -6.0891     2.8588 N.2     
   9 C9            -1.8638    -6.5044     2.1632 C.2     
  10 S10           -2.7346    -5.1426     1.5959 S.3     
  11 N11           -2.1927    -7.8343     1.9235 N.am    
  12 C12           -1.4275    -8.8200     2.4327 C.2     
  13 C13           -1.7839   -10.2611     2.1730 C.3     
  14 O14           -0.4522    -8.5473     3.1000 O.2     
  15 C15           -0.7773   -11.1569     2.8477 C.ar    
  16 C16           -0.9892   -11.5795     4.1464 C.ar    
  17 C17           -0.0657   -12.4013     4.7654 C.ar    
  18 C18            1.0693   -12.8008     4.0853 C.ar    
  19 C19            1.2809   -12.3788     2.7858 C.ar    
  20 C20            0.3555   -11.5607     2.1655 C.ar    
  21 C21            1.1728     2.2124     0.0068 C.ar    
  22 C22            1.1067     3.5973     0.0104 C.ar    
  23 C23           -0.1542     4.1903     0.0288 C.ar    
  24 N24           -1.2377     3.4283     0.0420 N.ar    
  25 N25           -1.1697     2.1466     0.0335 N.ar    
  26 N26           -0.2749     5.5794     0.0336 N.am    
  27 C27           -1.4926     6.1503    -0.0538 C.2     
  28 N28           -1.6193     7.4877     0.0557 N.am    
  29 O29           -2.4768     5.4590    -0.2315 O.2     
  30 C30            2.5186   -12.8139     2.0444 C.3     
  31 N31            2.2467   -14.0695     1.3319 N.3     
  32 C32           -2.9429     8.1083    -0.0394 C.3     
  33 C33           -2.8078     9.6243     0.1168 C.3     
  34 H34           -0.4413    -0.3711    -0.9084 H       
  35 H35            1.0306    -0.3540     0.0923 H       
  36 H36           -0.3609    -0.1610     2.1357 H       
  37 H37           -1.8328    -0.1782     1.1350 H       
  38 H38           -1.2250    -2.4248     0.2794 H       
  39 H39            0.2470    -2.4076     1.2801 H       
  40 H40           -1.1445    -2.2147     3.3235 H       
  41 H41           -2.6164    -2.2318     2.3228 H       
  42 H42           -2.9728    -8.0524     1.3898 H       
  43 H43           -2.7777   -10.4670     2.5707 H       
  44 H44           -1.7760   -10.4495     1.0995 H       
  45 H45           -1.8761   -11.2674     4.6779 H       
  46 H46           -0.2310   -12.7310     5.7805 H       
  47 H47            1.7910   -13.4422     4.5691 H       
  48 H48            0.5207   -11.2311     1.1504 H       
  49 H49            2.1240     1.7012    -0.0069 H       
  50 H50            2.0044     4.1977    -0.0003 H       
  51 H51            0.5176     6.1348     0.1000 H       
  52 H52           -0.8341     8.0392     0.1974 H       
  53 H53            2.8024   -12.0434     1.3275 H       
  54 H54            3.3319   -12.9674     2.7537 H       
  55 H55            3.0620   -14.3823     0.8265 H       
  56 H56            1.9194   -14.7820     1.9670 H       
  57 H57           -3.3819     7.8808    -1.0109 H       
  58 H58           -3.5850     7.7174     0.7499 H       
  59 H59           -2.3688     9.8517     1.0883 H       
  60 H60           -2.1657    10.0151    -0.6725 H       
  61 H61           -3.7926    10.0860     0.0461 H       
@<TRIPOS>BOND
   1    1    2 1
   2    1   21 ar
   3    1   25 ar
   4    2    3 1
   5    2   34 1
   6    2   35 1
   7    3    4 1
   8    3   36 1
   9    3   37 1
  10    4    5 1
  11    4   38 1
  12    4   39 1
  13    5    6 1
  14    5   40 1
  15    5   41 1
  16    6    7 2
  17    6   10 1
  18    7    8 1
  19    8    9 2
  20    9   10 1
  21    9   11 1
  22   11   12 am
  23   11   42 1
  24   12   13 1
  25   12   14 2
  26   13   15 1
  27   13   43 1
  28   13   44 1
  29   15   16 ar
  30   15   20 ar
  31   16   17 ar
  32   16   45 1
  33   17   18 ar
  34   17   46 1
  35   18   19 ar
  36   18   47 1
  37   19   20 ar
  38   19   30 1
  39   20   48 1
  40   21   22 ar
  41   21   49 1
  42   22   23 ar
  43   22   50 1
  44   23   24 ar
  45   23   26 1
  46   24   25 ar
  47   26   27 am
  48   26   51 1
  49   27   28 am
  50   27   29 2
  51   28   32 1
  52   28   52 1
  53   30   31 1
  54   30   53 1
  55   30   54 1
  56   31   55 1
  57   31   56 1
  58   32   33 1
  59   32   57 1
  60   32   58 1
  61   33   59 1
  62   33   60 1
  63   33   61 1

#	End of record

