#	Name: ASD01940640
#	Creating user name:	WinNT
#	Creation time:	15. 06. 2019 20:12

#	Modifying user name:	WinNT
#	Modification time:	15. 06. 2019 20:12

#	Program:	/corina/corina34_cracker 3.40 0067  02.08.2006

@<TRIPOS>MOLECULE
ASD01940640
  39   41    0    0    0
SMALL
NO_CHARGES


@<TRIPOS>ATOM
   1 I1            -8.0415    -3.1424    -4.2296 I       
   2 F2            -6.0157    -1.1036     0.3326 F       
   3 O3            -0.0375     1.3377    -0.6282 O.3     
   4 O4            -2.1882    -0.1464    -0.0711 O.2     
   5 O5             0.6661     3.9791     0.2593 O.3     
   6 N6            -2.3126    -4.2951    -0.0876 N.pl3   
   7 N7            -3.5171    -2.2521     0.0084 N.pl3   
   8 N8            -2.7760    -6.4181    -0.0091 N.2     
   9 N9            -0.0092    -0.0723    -0.5009 N.am    
  10 C10           -2.3274    -2.9260    -0.1071 C.2     
  11 C11           -1.1251    -4.9888    -0.2021 C.2     
  12 C12           -1.1395    -2.2179    -0.2434 C.2     
  13 C13            0.1040    -4.3048    -0.3419 C.2     
  14 C14            0.1228    -2.9506    -0.3652 C.2     
  15 C15           -3.3027    -5.2228     0.0256 C.2     
  16 C16           -1.4507    -6.3274    -0.1475 C.2     
  17 C17           -4.5282    -2.4503    -0.9384 C.ar    
  18 C18           -1.1497    -0.7507    -0.2655 C.2     
  19 C19           -5.7768    -1.8647    -0.7577 C.ar    
  20 C20           -4.2857    -3.2274    -2.0632 C.ar    
  21 C21           -6.7733    -2.0631    -1.6957 C.ar    
  22 C22           -5.2856    -3.4215    -2.9962 C.ar    
  23 C23           -6.5287    -2.8432    -2.8116 C.ar    
  24 C24            1.2416     1.9247    -0.8760 C.3     
  25 C25            1.0916     3.4427    -0.9950 C.3     
  26 H26           -3.6571    -1.6384     0.7463 H       
  27 H27            1.0258    -4.8605    -0.4302 H       
  28 H28            1.0563    -2.4182    -0.4726 H       
  29 H29           -4.3556    -5.0054     0.1278 H       
  30 H30           -0.7583    -7.1543    -0.2054 H       
  31 H31           -3.3157    -3.6795    -2.2087 H       
  32 H32            0.8310    -0.5499    -0.5832 H       
  33 H33           -7.7433    -1.6090    -1.5568 H       
  34 H34           -5.0966    -4.0257    -3.8712 H       
  35 H35            1.9151     1.6896    -0.0519 H       
  36 H36            1.6505     1.5261    -1.8045 H       
  37 H37            0.3509     3.6758    -1.7599 H       
  38 H38            2.0501     3.8819    -1.2717 H       
  39 H39            0.5502     4.9391     0.2575 H       
@<TRIPOS>BOND
   1    1   23 1
   2    2   19 1
   3    3    9 1
   4    3   24 1
   5    4   18 2
   6    5   25 1
   7    5   39 1
   8    6   10 1
   9    6   11 1
  10    6   15 1
  11    7   10 1
  12    7   17 1
  13    7   26 1
  14    8   15 2
  15    8   16 1
  16    9   18 am
  17    9   32 1
  18   10   12 2
  19   11   13 1
  20   11   16 2
  21   12   14 1
  22   12   18 1
  23   13   14 2
  24   13   27 1
  25   14   28 1
  26   15   29 1
  27   16   30 1
  28   17   19 ar
  29   17   20 ar
  30   19   21 ar
  31   20   22 ar
  32   20   31 1
  33   21   23 ar
  34   21   33 1
  35   22   23 ar
  36   22   34 1
  37   24   25 1
  38   24   35 1
  39   24   36 1
  40   25   37 1
  41   25   38 1

#	End of record

