#	Name: ASD03082200
#	Creating user name:	WinNT
#	Creation time:	15. 06. 2019 20:27

#	Modifying user name:	WinNT
#	Modification time:	15. 06. 2019 20:27

#	Program:	/corina/corina34_cracker 3.40 0067  02.08.2006

@<TRIPOS>MOLECULE
ASD03082200
  50   53    0    0    0
SMALL
NO_CHARGES


@<TRIPOS>ATOM
   1 N1             0.0256     1.4351    -0.1381 N.pl3   
   2 N2            -0.0156     0.0319    -0.1769 N.2     
   3 C3             1.2062    -0.3931     0.0510 C.2     
   4 N4             2.0063     0.6587     0.2294 N.2     
   5 C5             1.3093     1.7716     0.1185 C.2     
   6 N6             1.6031    -1.7310     0.0994 N.pl3   
   7 C7             2.9560    -2.0539     0.2334 C.ar    
   8 C8             3.3297    -3.2667     0.7991 C.ar    
   9 C9             4.6674    -3.5827     0.9300 C.ar    
  10 C10            5.6351    -2.6932     0.4991 C.ar    
  11 C11            5.2667    -1.4852    -0.0638 C.ar    
  12 C12            3.9303    -1.1657    -0.2039 C.ar    
  13 C13            5.0736    -4.8979     1.5434 C.3     
  14 F14            5.1835    -5.8663     0.5398 F       
  15 F15            6.3072    -4.7511     2.1869 F       
  16 F16            4.1073    -5.2971     2.4729 F       
  17 C17            1.5205     5.4905     0.6277 C.ar    
  18 C18            0.9844     4.2244     0.5113 C.ar    
  19 C19            1.8387     3.1473     0.2515 C.ar    
  20 C20            3.2073     3.4067     0.1212 C.ar    
  21 C21            3.6578     4.7042     0.2531 C.ar    
  22 N22            2.8178     5.6914     0.4978 N.ar    
  23 C23           -1.0985     2.3522    -0.3417 C.3     
  24 C24           -1.7825     2.6089     0.9764 C.2     
  25 N25           -2.8509     3.4284     1.0329 N.am    
  26 O26           -1.3715     2.0779     1.9864 O.2     
  27 C27           -3.5352     3.6942     2.3082 C.3     
  28 C28           -3.6759     5.2117     2.4744 C.3     
  29 O29           -4.2834     5.7592     1.3018 O.3     
  30 C30           -3.5163     5.5827     0.1084 C.3     
  31 C31           -3.3640     4.0887    -0.1780 C.3     
  32 H32            0.9397    -2.4361     0.0401 H       
  33 H33            2.5746    -3.9614     1.1363 H       
  34 H34            6.6807    -2.9427     0.6030 H       
  35 H35            6.0249    -0.7927    -0.3985 H       
  36 H36            3.6432    -0.2241    -0.6481 H       
  37 H37            0.8687     6.3289     0.8237 H       
  38 H38           -0.0786     4.0672     0.6192 H       
  39 H39            3.9008     2.6033    -0.0791 H       
  40 H40            4.7126     4.9144     0.1542 H       
  41 H41           -0.7301     3.2937    -0.7492 H       
  42 H42           -1.8086     1.9076    -1.0389 H       
  43 H43           -4.5227     3.2329     2.2981 H       
  44 H44           -2.9479     3.2877     3.1316 H       
  45 H45           -4.2998     5.4266     3.3419 H       
  46 H46           -2.6903     5.6555     2.6149 H       
  47 H47           -4.0254     6.0646    -0.7263 H       
  48 H48           -2.5301     6.0278     0.2403 H       
  49 H49           -2.6654     3.9422    -1.0018 H       
  50 H50           -4.3335     3.6641    -0.4382 H       
@<TRIPOS>BOND
   1    1    2 1
   2    1    5 1
   3    1   23 1
   4    2    3 2
   5    3    4 1
   6    3    6 1
   7    4    5 2
   8    5   19 1
   9    6    7 1
  10    6   32 1
  11    7    8 ar
  12    7   12 ar
  13    8    9 ar
  14    8   33 1
  15    9   10 ar
  16    9   13 1
  17   10   11 ar
  18   10   34 1
  19   11   12 ar
  20   11   35 1
  21   12   36 1
  22   13   14 1
  23   13   15 1
  24   13   16 1
  25   17   18 ar
  26   17   22 ar
  27   17   37 1
  28   18   19 ar
  29   18   38 1
  30   19   20 ar
  31   20   21 ar
  32   20   39 1
  33   21   22 ar
  34   21   40 1
  35   23   24 1
  36   23   41 1
  37   23   42 1
  38   24   25 am
  39   24   26 2
  40   25   27 1
  41   25   31 1
  42   27   28 1
  43   27   43 1
  44   27   44 1
  45   28   29 1
  46   28   45 1
  47   28   46 1
  48   29   30 1
  49   30   31 1
  50   30   47 1
  51   30   48 1
  52   31   49 1
  53   31   50 1

#	End of record

