#	Name: ASD03091238
#	Creating user name:	WinNT
#	Creation time:	15. 06. 2019 20:30

#	Modifying user name:	WinNT
#	Modification time:	15. 06. 2019 20:30

#	Program:	/corina/corina34_cracker 3.40 0067  02.08.2006

@<TRIPOS>MOLECULE
ASD03091238
  54   58    0    0    0
SMALL
NO_CHARGES


@<TRIPOS>ATOM
   1 N1             0.0222     1.1579     0.4538 N.2     
   2 C2             0.0598    -0.0765     0.0241 C.2     
   3 N3             1.2048    -0.6761    -0.4266 N.am    
   4 C4             2.3735     0.0062    -0.4447 C.2     
   5 C5             2.3548     1.3967     0.0336 C.ar    
   6 C6             3.5056     2.1813     0.0538 C.ar    
   7 C7             3.4303     3.4851     0.5142 C.ar    
   8 C8             2.2147     4.0096     0.9539 C.ar    
   9 C9             1.0787     3.2527     0.9401 C.ar    
  10 C10            1.1256     1.9327     0.4808 C.ar    
  11 O11            3.4013    -0.5116    -0.8415 O.2     
  12 C12           -1.1927    -0.8614     0.0257 C.ar    
  13 C13           -2.0647    -0.7881     1.1136 C.ar    
  14 C14           -3.5395    -2.3315     0.0285 C.ar    
  15 C15           -1.5117    -1.6746    -1.0628 C.ar    
  16 C16           -3.2320    -1.5228     1.1085 C.ar    
  17 C17           -2.6826    -2.4043    -1.0551 C.ar    
  18 C18           -4.1745    -1.4449     2.2818 C.3     
  19 C19            1.1651    -2.0648    -0.8918 C.3     
  20 N20            7.0633     5.5077    -0.5068 N.3     
  21 C21            7.0525     4.2868     0.3135 C.3     
  22 C22            5.7573     3.5157     0.1121 C.3     
  23 N23            4.5793     4.2803     0.5388 N.3     
  24 C24            4.4089     5.4779    -0.2957 C.3     
  25 C25            5.0708     6.6805     0.3602 C.3     
  26 C26            6.5840     6.6495     0.2853 C.3     
  27 C27            6.4262     5.4141    -1.8029 C.3     
  28 C28            4.9272     5.1890    -1.6927 C.3     
  29 H29            4.4474     1.7766    -0.2860 H       
  30 H30            2.1719     5.0282     1.3106 H       
  31 H31            0.1451     3.6727     1.2841 H       
  32 H32           -1.8255    -0.1578     1.9574 H       
  33 H33           -4.4547    -2.9050     0.0297 H       
  34 H34           -0.8435    -1.7323    -1.9094 H       
  35 H35           -2.9285    -3.0375    -1.8948 H       
  36 H36           -4.8932    -0.6420     2.1179 H       
  37 H37           -4.7047    -2.3916     2.3855 H       
  38 H38           -3.6072    -1.2448     3.1908 H       
  39 H39            0.8781    -2.0877    -1.9431 H       
  40 H40            2.1504    -2.5157    -0.7742 H       
  41 H41            0.4371    -2.6241    -0.3041 H       
  42 H42            7.8942     3.6555     0.0287 H       
  43 H43            7.1484     4.5595     1.3644 H       
  44 H44            5.6541     3.2686    -0.9444 H       
  45 H45            5.8045     2.5903     0.6862 H       
  46 H46            3.3414     5.6822    -0.3782 H       
  47 H47            4.7151     7.5862    -0.1310 H       
  48 H48            4.7734     6.7146     1.4082 H       
  49 H49            6.9889     6.5773     1.2947 H       
  50 H50            6.9367     7.5735    -0.1729 H       
  51 H51            6.6055     6.3381    -2.3524 H       
  52 H52            6.8685     4.5849    -2.3551 H       
  53 H53            4.7050     4.1522    -1.9456 H       
  54 H54            4.4179     5.8418    -2.4016 H       
@<TRIPOS>BOND
   1    1    2 2
   2    1   10 1
   3    2    3 1
   4    2   12 1
   5    3    4 am
   6    3   19 1
   7    4    5 1
   8    4   11 2
   9    5    6 ar
  10    5   10 ar
  11    6    7 ar
  12    6   29 1
  13    7    8 ar
  14    7   23 1
  15    8    9 ar
  16    8   30 1
  17    9   10 ar
  18    9   31 1
  19   12   13 ar
  20   12   15 ar
  21   13   16 ar
  22   13   32 1
  23   14   16 ar
  24   14   17 ar
  25   14   33 1
  26   15   17 ar
  27   15   34 1
  28   16   18 1
  29   17   35 1
  30   18   36 1
  31   18   37 1
  32   18   38 1
  33   19   39 1
  34   19   40 1
  35   19   41 1
  36   20   21 1
  37   20   26 1
  38   20   27 1
  39   21   22 1
  40   21   42 1
  41   21   43 1
  42   22   23 1
  43   22   44 1
  44   22   45 1
  45   23   24 1
  46   24   25 1
  47   24   28 1
  48   24   46 1
  49   25   26 1
  50   25   47 1
  51   25   48 1
  52   26   49 1
  53   26   50 1
  54   27   28 1
  55   27   51 1
  56   27   52 1
  57   28   53 1
  58   28   54 1

#	End of record

