#	Name: ASD01916443
#	Creating user name:	WinNT
#	Creation time:	15. 06. 2019 20:07

#	Modifying user name:	WinNT
#	Modification time:	15. 06. 2019 20:07

#	Program:	/corina/corina34_cracker 3.40 0067  02.08.2006

@<TRIPOS>MOLECULE
ASD01916443
  26   27    0    0    0
SMALL
NO_CHARGES


@<TRIPOS>ATOM
   1 S1            -0.0218     1.7575     0.0117 S.3     
   2 C2             0.0021    -0.0041     0.0020 C.2     
   3 N3             1.2386    -0.4124    -0.0120 N.2     
   4 C4             2.1722     0.5109    -0.0159 C.2     
   5 C5             1.7405     1.7765    -0.0050 C.2     
   6 C6            -1.1904    -0.8785     0.0091 C.ar    
   7 C7            -2.4690    -0.3197     0.0243 C.ar    
   8 C8            -3.5775    -1.1411     0.0309 C.ar    
   9 C9            -3.4234    -2.5160     0.0231 C.ar    
  10 C10           -2.1585    -3.0763     0.0080 C.ar    
  11 C11           -1.0419    -2.2660    -0.0050 C.ar    
  12 C12            3.6390     0.1657    -0.0313 C.3     
  13 C13            3.9567    -0.7630     1.1423 C.3     
  14 C14            5.3895    -1.1002     1.1273 C.1     
  15 C15            6.5322    -1.3691     1.1153 C.1     
  16 H16            2.3642     2.6582    -0.0068 H       
  17 H17           -2.5905     0.7534     0.0312 H       
  18 H18           -4.5676    -0.7099     0.0427 H       
  19 H19           -4.2943    -3.1546     0.0290 H       
  20 H20           -2.0450    -4.1503     0.0023 H       
  21 H21           -0.0551    -2.7045    -0.0213 H       
  22 H22            3.8846    -0.3352    -0.9678 H       
  23 H23            4.2280     1.0785     0.0579 H       
  24 H24            3.7111    -0.2622     2.0788 H       
  25 H25            3.3677    -1.6758     1.0531 H       
  26 H26            7.5543    -1.6096     1.1046 H       
@<TRIPOS>BOND
   1    1    2 1
   2    1    5 1
   3    2    3 2
   4    2    6 1
   5    3    4 1
   6    4    5 2
   7    4   12 1
   8    5   16 1
   9    6    7 ar
  10    6   11 ar
  11    7    8 ar
  12    7   17 1
  13    8    9 ar
  14    8   18 1
  15    9   10 ar
  16    9   19 1
  17   10   11 ar
  18   10   20 1
  19   11   21 1
  20   12   13 1
  21   12   22 1
  22   12   23 1
  23   13   14 1
  24   13   24 1
  25   13   25 1
  26   14   15 3
  27   15   26 1

#	End of record

