#	Name: ASD07930332
#	Creating user name:	WinNT
#	Creation time:	15. 06. 2019 21:12

#	Modifying user name:	WinNT
#	Modification time:	15. 06. 2019 21:12

#	Program:	/corina/corina34_cracker 3.40 0067  02.08.2006

@<TRIPOS>MOLECULE
ASD07930332
  47   48    0    0    0
SMALL
NO_CHARGES


@<TRIPOS>ATOM
   1 N1            -0.0057     1.4467     0.2173 N.pl3   
   2 C2             0.0021    -0.0041     0.0020 C.3     
   3 C3             0.8306    -0.6736     1.1078 C.3     
   4 S4             2.4899     0.0760     1.1073 S.o2    
   5 N5             2.1539     1.7081     1.1106 N.am    
   6 C6             1.1735     2.1400     0.2468 C.2     
   7 C7            -1.4106    -0.5271     0.0446 C.ar    
   8 C8            -2.1691    -0.3776     1.1928 C.ar    
   9 C9            -3.4670    -0.8582     1.2331 C.ar    
  10 C10           -4.0058    -1.4875     0.1250 C.ar    
  11 C11           -3.2450    -1.6363    -1.0250 C.ar    
  12 C12           -1.9500    -1.1507    -1.0650 C.ar    
  13 C13            2.8669     2.6376     1.9903 C.3     
  14 F14           -1.6427     0.2370     2.2747 F       
  15 F15           -5.2719    -1.9572     0.1634 F       
  16 O16            3.1487    -0.1561     2.3448 O.2     
  17 O17            3.1459    -0.1516    -0.1325 O.2     
  18 C18            0.6228    -0.3152    -1.3613 C.3     
  19 F19           -3.7701    -2.2506    -2.1077 F       
  20 N20            1.3652     3.1941    -0.5313 N.2     
  21 O21            0.5928     4.6705    -2.1568 O.3     
  22 C22           -0.4827     5.0435    -3.0206 C.3     
  23 C23           -1.7200     5.3711    -2.1822 C.3     
  24 C24           -0.0789     6.2736    -3.8359 C.3     
  25 C25           -0.8008     3.8854    -3.9684 C.3     
  26 C26            0.3974     3.5963    -1.3638 C.2     
  27 O27           -0.6591     2.9929    -1.4057 O.2     
  28 H28           -0.8470     1.9151     0.3349 H       
  29 H29            0.3537    -0.5108     2.0743 H       
  30 H30            0.9100    -1.7429     0.9116 H       
  31 H31           -4.0585    -0.7422     2.1293 H       
  32 H32           -1.3576    -1.2662    -1.9606 H       
  33 H33            3.7521     3.0154     1.4787 H       
  34 H34            2.2119     3.4704     2.2463 H       
  35 H35            3.1671     2.1185     2.9005 H       
  36 H36            1.6453     0.0613    -1.3895 H       
  37 H37            0.6282    -1.3935    -1.5205 H       
  38 H38            0.0371     0.1649    -2.1453 H       
  39 H39           -1.4934     6.1962    -1.5070 H       
  40 H40           -2.5404     5.6556    -2.8411 H       
  41 H41           -2.0076     4.4947    -1.6013 H       
  42 H42            0.8025     6.0403    -4.4332 H       
  43 H43           -0.8994     6.5581    -4.4948 H       
  44 H44            0.1477     7.0987    -3.1607 H       
  45 H45           -1.0885     3.0090    -3.3875 H       
  46 H46           -1.6213     4.1699    -4.6272 H       
  47 H47            0.0806     3.6520    -4.5656 H       
@<TRIPOS>BOND
   1    1    2 1
   2    1    6 1
   3    1   28 1
   4    2    3 1
   5    2    7 1
   6    2   18 1
   7    3    4 1
   8    3   29 1
   9    3   30 1
  10    4    5 am
  11    4   16 2
  12    4   17 2
  13    5    6 1
  14    5   13 1
  15    6   20 2
  16    7    8 ar
  17    7   12 ar
  18    8    9 ar
  19    8   14 1
  20    9   10 ar
  21    9   31 1
  22   10   11 ar
  23   10   15 1
  24   11   12 ar
  25   11   19 1
  26   12   32 1
  27   13   33 1
  28   13   34 1
  29   13   35 1
  30   18   36 1
  31   18   37 1
  32   18   38 1
  33   20   26 1
  34   21   22 1
  35   21   26 1
  36   22   23 1
  37   22   24 1
  38   22   25 1
  39   23   39 1
  40   23   40 1
  41   23   41 1
  42   24   42 1
  43   24   43 1
  44   24   44 1
  45   25   45 1
  46   25   46 1
  47   25   47 1
  48   26   27 2

#	End of record

