#	Name: ASD01882947
#	Creating user name:	WinNT
#	Creation time:	15. 06. 2019 19:45

#	Modifying user name:	WinNT
#	Modification time:	15. 06. 2019 19:45

#	Program:	/corina/corina34_cracker 3.40 0067  02.08.2006

@<TRIPOS>MOLECULE
ASD01882947
  49   52    0    0    0
SMALL
NO_CHARGES


@<TRIPOS>ATOM
   1 C1            -0.0159     1.3220     0.0093 C.2     
   2 N2             0.0021    -0.0041     0.0020 N.2     
   3 C3             1.1523    -0.6857    -0.0126 C.2     
   4 C4             2.3835     0.0173    -0.0206 C.2     
   5 C5             2.3523     1.3664    -0.0131 C.2     
   6 N6             1.1484     2.0132     0.0019 N.pl3   
   7 O7            -1.0993     2.1290     0.0184 O.3     
   8 C8             0.8540     3.4562     0.0125 C.3     
   9 C9            -0.6831     3.5211     0.0242 C.3     
  10 O10            1.1423    -1.9071    -0.0187 O.2     
  11 C11           -1.1944     4.2379    -1.2270 C.3     
  12 C12           -1.1835     4.2242     1.2877 C.3     
  13 O13           -2.6119     4.1956     1.3147 O.3     
  14 C14           -3.2207     4.7820     2.3789 C.ar    
  15 C15           -4.6051     4.7908     2.4694 C.ar    
  16 C16           -5.2215     5.3875     3.5521 C.ar    
  17 C17           -4.4600     5.9757     4.5450 C.ar    
  18 C18           -3.0802     5.9687     4.4569 C.ar    
  19 C19           -2.4588     5.3678     3.3793 C.ar    
  20 C20           -5.1351     6.6260     5.7250 C.3     
  21 C21           -4.6856     5.9354     7.0141 C.3     
  22 C22           -5.3710     6.5956     8.2121 C.3     
  23 C23           -4.9884     8.0760     8.2665 C.3     
  24 C24           -5.4379     8.7666     6.9774 C.3     
  25 C25           -4.7525     8.1064     5.7794 C.3     
  26 H26            3.3237    -0.5140    -0.0321 H       
  27 H27            3.2727     1.9314    -0.0185 H       
  28 H28            1.2651     3.9237     0.9072 H       
  29 H29            1.2480     3.9334    -0.8848 H       
  30 H30           -2.2841     4.2163    -1.2384 H       
  31 H31           -0.8516     5.2726    -1.2186 H       
  32 H32           -0.8117     3.7356    -2.1155 H       
  33 H33           -0.7931     3.7122     2.1672 H       
  34 H34           -0.8407     5.2589     1.2876 H       
  35 H35           -5.2003     4.3318     1.6939 H       
  36 H36           -6.2992     5.3950     3.6228 H       
  37 H37           -2.4876     6.4294     5.2334 H       
  38 H38           -1.3808     5.3582     3.3134 H       
  39 H39           -6.2162     6.5338     5.6214 H       
  40 H40           -4.9582     4.8807     6.9754 H       
  41 H41           -3.6045     6.0277     7.1178 H       
  42 H42           -6.4521     6.5033     8.1085 H       
  43 H43           -5.0507     6.1036     9.1305 H       
  44 H44           -5.4766     8.5463     9.1200 H       
  45 H45           -3.9072     8.1683     8.3702 H       
  46 H46           -6.5190     8.6744     6.8738 H       
  47 H47           -5.1653     9.8213     7.0162 H       
  48 H48           -3.6714     8.1987     5.8831 H       
  49 H49           -5.0727     8.5984     4.8610 H       
@<TRIPOS>BOND
   1    1    2 2
   2    1    6 1
   3    1    7 1
   4    2    3 1
   5    3    4 1
   6    3   10 2
   7    4    5 2
   8    4   26 1
   9    5    6 1
  10    5   27 1
  11    6    8 1
  12    7    9 1
  13    8    9 1
  14    8   28 1
  15    8   29 1
  16    9   11 1
  17    9   12 1
  18   11   30 1
  19   11   31 1
  20   11   32 1
  21   12   13 1
  22   12   33 1
  23   12   34 1
  24   13   14 1
  25   14   15 ar
  26   14   19 ar
  27   15   16 ar
  28   15   35 1
  29   16   17 ar
  30   16   36 1
  31   17   18 ar
  32   17   20 1
  33   18   19 ar
  34   18   37 1
  35   19   38 1
  36   20   21 1
  37   20   25 1
  38   20   39 1
  39   21   22 1
  40   21   40 1
  41   21   41 1
  42   22   23 1
  43   22   42 1
  44   22   43 1
  45   23   24 1
  46   23   44 1
  47   23   45 1
  48   24   25 1
  49   24   46 1
  50   24   47 1
  51   25   48 1
  52   25   49 1

#	End of record

