#	Name: ASD01915568
#	Creating user name:	WinNT
#	Creation time:	15. 06. 2019 20:05

#	Modifying user name:	WinNT
#	Modification time:	15. 06. 2019 20:05

#	Program:	/corina/corina34_cracker 3.40 0067  02.08.2006

@<TRIPOS>MOLECULE
ASD01915568
  50   53    0    0    0
SMALL
NO_CHARGES


@<TRIPOS>ATOM
   1 C1            -0.0043     1.4631     0.2176 C.2     
   2 N2             0.0615     0.1099    -0.0288 N.pl3   
   3 C3            -1.1510    -0.6743    -0.2922 C.3     
   4 C4            -2.3298    -0.0462     0.4495 C.3     
   5 N5            -2.4043     1.3988     0.2637 N.am    
   6 C6            -1.2916     2.1721     0.2677 C.2     
   7 C7             1.2784     1.9004     0.3937 C.2     
   8 C8             2.0745     0.7558     0.2522 C.2     
   9 N9             1.2813    -0.2615     0.0091 N.2     
  10 C10            3.5768     0.7023     0.3596 C.3     
  11 O11            4.0817     2.0112     0.6316 O.3     
  12 C12            5.4287     2.1386     0.7592 C.ar    
  13 O13           -1.3542     3.3861     0.3108 O.2     
  14 C14            5.9872     3.3807     1.0235 C.ar    
  15 C15            6.2472     1.0258     0.6309 C.ar    
  16 C16            7.6161     1.1579     0.7609 C.ar    
  17 C17            8.1707     2.3980     1.0187 C.ar    
  18 C18            7.3567     3.5076     1.1526 C.ar    
  19 C19           -3.6482     1.9975     0.0773 C.ar    
  20 C20           -4.8069     1.2635     0.3044 C.ar    
  21 C21           -6.0361     1.8705     0.1155 C.ar    
  22 C22           -6.0639     3.1960    -0.2956 C.ar    
  23 C23           -4.8735     3.8650    -0.5025 C.ar    
  24 N24           -3.7163     3.2620    -0.3091 N.ar    
  25 C25           -4.8968     5.3040    -0.9493 C.3     
  26 C26           -4.0783     6.1538     0.0247 C.3     
  27 O27           -4.1004     7.5184    -0.3990 O.3     
  28 C28           -3.3615     8.4017     0.4470 C.3     
  29 H29           -1.3557    -0.6791    -1.3628 H       
  30 H30           -1.0056    -1.6970     0.0555 H       
  31 H31           -3.2540    -0.4961     0.0869 H       
  32 H32           -2.2304    -0.2598     1.5137 H       
  33 H33            1.6072     2.9088     0.5973 H       
  34 H34            3.8594     0.0285     1.1684 H       
  35 H35            3.9955     0.3392    -0.5789 H       
  36 H36            5.3519     4.2478     1.1279 H       
  37 H37            5.8144     0.0569     0.4299 H       
  38 H38            8.2536     0.2919     0.6615 H       
  39 H39            9.2412     2.4992     1.1200 H       
  40 H40            7.7924     4.4752     1.3536 H       
  41 H41           -4.7484     0.2334     0.6235 H       
  42 H42           -6.9530     1.3252     0.2838 H       
  43 H43           -7.0067     3.6989    -0.4524 H       
  44 H44           -4.4675     5.3813    -1.9482 H       
  45 H45           -5.9261     5.6621    -0.9675 H       
  46 H46           -4.5075     6.0765     1.0236 H       
  47 H47           -3.0489     5.7957     0.0429 H       
  48 H48           -3.4276     9.4177     0.0577 H       
  49 H49           -3.7759     8.3711     1.4547 H       
  50 H50           -2.3173     8.0902     0.4739 H       
@<TRIPOS>BOND
   1    1    2 1
   2    1    7 2
   3    1    6 1
   4    2    3 1
   5    2    9 1
   6    3    4 1
   7    3   29 1
   8    3   30 1
   9    4    5 1
  10    4   31 1
  11    4   32 1
  12    5    6 am
  13    5   19 1
  14    6   13 2
  15    7    8 1
  16    7   33 1
  17    8    9 2
  18    8   10 1
  19   10   11 1
  20   10   34 1
  21   10   35 1
  22   11   12 1
  23   12   14 ar
  24   12   15 ar
  25   14   18 ar
  26   14   36 1
  27   15   16 ar
  28   15   37 1
  29   16   17 ar
  30   16   38 1
  31   17   18 ar
  32   17   39 1
  33   18   40 1
  34   19   20 ar
  35   19   24 ar
  36   20   21 ar
  37   20   41 1
  38   21   22 ar
  39   21   42 1
  40   22   23 ar
  41   22   43 1
  42   23   24 ar
  43   23   25 1
  44   25   26 1
  45   25   44 1
  46   25   45 1
  47   26   27 1
  48   26   46 1
  49   26   47 1
  50   27   28 1
  51   28   48 1
  52   28   49 1
  53   28   50 1

#	End of record

