#	Name: ASD01813154
#	Creating user name:	WinNT
#	Creation time:	15. 06. 2019 19:29

#	Modifying user name:	WinNT
#	Modification time:	15. 06. 2019 19:29

#	Program:	/corina/corina34_cracker 3.40 0067  02.08.2006

@<TRIPOS>MOLECULE
ASD01813154
  54   57    0    0    0
SMALL
NO_CHARGES


@<TRIPOS>ATOM
   1 C1             0.1783     1.9400    -0.3434 C.3     
   2 O2             0.1326     0.5171    -0.2198 O.3     
   3 C3             0.7039    -0.2076    -1.2175 C.ar    
   4 C4             1.3014     0.4377    -2.2905 C.ar    
   5 C5             1.8819    -0.3012    -3.3031 C.ar    
   6 C6             1.8674    -1.6827    -3.2481 C.ar    
   7 C7             2.5010    -2.4863    -4.3544 C.3     
   8 N8             3.9420    -2.5963    -4.1144 N.pl3   
   9 C9             4.7471    -1.6398    -4.5949 C.2     
  10 C10            6.1140    -1.6694    -4.4124 C.2     
  11 C11            6.9643    -0.5991    -4.9562 C.2     
  12 O12            6.4778     0.2663    -5.6591 O.2     
  13 N13            8.2824    -0.5773    -4.6756 N.am    
  14 C14            9.1082     0.5469    -5.1232 C.3     
  15 H15            8.7494     0.9006    -6.0898 H       
  16 C16            9.0259     1.6829    -4.0991 C.3     
  17 C17            9.9525     2.8209    -4.5352 C.3     
  18 O18           11.2863     2.3244    -4.6641 O.3     
  19 C19           11.4329     1.2927    -5.6420 C.3     
  20 C20           10.5654     0.0928    -5.2524 C.3     
  21 H21           10.9078    -0.3083    -4.2985 H       
  22 O22           10.6635    -0.9166    -6.2592 O.3     
  23 C23            6.7078    -2.7891    -3.6643 C.2     
  24 O24            7.9097    -2.8605    -3.4760 O.2     
  25 C25            5.7878    -3.8200    -3.1522 C.ar    
  26 C26            6.2623    -4.9184    -2.4308 C.ar    
  27 F27            7.5847    -5.0533    -2.1894 F       
  28 C28            5.3713    -5.8648    -1.9658 C.ar    
  29 C29            4.0138    -5.7277    -2.2122 C.ar    
  30 C30            3.5315    -4.6478    -2.9233 C.ar    
  31 F31            2.2058    -4.5291    -3.1548 F       
  32 C32            4.4116    -3.6773    -3.3986 C.ar    
  33 C33            1.2729    -2.3282    -2.1796 C.ar    
  34 C34            0.6957    -1.5938    -1.1618 C.ar    
  35 H35            1.2170     2.2678    -0.3857 H       
  36 H36           -0.3355     2.2421    -1.2561 H       
  37 H37           -0.3117     2.3954     0.5171 H       
  38 H38            1.3124     1.5167    -2.3342 H       
  39 H39            2.3472     0.2006    -4.1386 H       
  40 H40            2.0595    -3.4826    -4.3784 H       
  41 H41            2.3285    -1.9893    -5.3091 H       
  42 H42            4.3115    -0.8180    -5.1439 H       
  43 H43            8.6842    -1.3060    -4.1771 H       
  44 H44            8.0008     2.0492    -4.0429 H       
  45 H45            9.3363     1.3149    -3.1211 H       
  46 H46            9.6172     3.2153    -5.4944 H       
  47 H47            9.9305     3.6142    -3.7880 H       
  48 H48           11.1169     1.6672    -6.6156 H       
  49 H49           12.4774     0.9851    -5.6921 H       
  50 H50           11.5607    -1.2510    -6.3946 H       
  51 H51            5.7333    -6.7158    -1.4080 H       
  52 H52            3.3262    -6.4746    -1.8438 H       
  53 H53            1.2632    -3.4074    -2.1387 H       
  54 H54            0.2347    -2.0984    -0.3255 H       
@<TRIPOS>BOND
   1    1    2 1
   2    1   35 1
   3    1   36 1
   4    1   37 1
   5    2    3 1
   6    3   34 ar
   7    3    4 ar
   8    4    5 ar
   9    4   38 1
  10    5    6 ar
  11    5   39 1
  12    6    7 1
  13    6   33 ar
  14    7    8 1
  15    7   40 1
  16    7   41 1
  17    8   32 1
  18    8    9 1
  19    9   10 2
  20    9   42 1
  21   10   11 1
  22   10   23 1
  23   11   12 2
  24   11   13 am
  25   13   14 1
  26   13   43 1
  27   14   15 1
  28   14   20 1
  29   14   16 1
  30   16   17 1
  31   16   44 1
  32   16   45 1
  33   17   18 1
  34   17   46 1
  35   17   47 1
  36   18   19 1
  37   19   20 1
  38   19   48 1
  39   19   49 1
  40   20   21 1
  41   20   22 1
  42   22   50 1
  43   23   24 2
  44   23   25 1
  45   25   32 ar
  46   25   26 ar
  47   26   27 1
  48   26   28 ar
  49   28   29 ar
  50   28   51 1
  51   29   30 ar
  52   29   52 1
  53   30   31 1
  54   30   32 ar
  55   33   34 ar
  56   33   53 1
  57   34   54 1

#	End of record

