#	Name: ASD01148594
#	Creating user name:	WinNT
#	Creation time:	15. 06. 2019 19:02

#	Modifying user name:	WinNT
#	Modification time:	15. 06. 2019 19:02

#	Program:	/corina/corina34_cracker 3.40 0067  02.08.2006

@<TRIPOS>MOLECULE
ASD01148594
  53   56    0    0    0
SMALL
NO_CHARGES


@<TRIPOS>ATOM
   1 C1            -0.0170     1.4376    -0.0252 C.ar    
   2 C2             0.0192     0.0537    -0.0359 C.ar    
   3 C3            -1.1607    -0.6685    -0.0202 C.ar    
   4 C4            -2.3746    -0.0083     0.0060 C.ar    
   5 C5            -2.4108     1.3738     0.0167 C.ar    
   6 C6            -1.2329     2.0968     0.0064 C.ar    
   7 C7            -3.7351     2.0923     0.0449 C.3     
   8 O8            -4.7242     1.3236     0.7591 O.3     
   9 C9            -3.6508     3.3755     0.9055 C.3     
  10 C10           -4.1239     2.8933     2.2637 C.2     
  11 N11           -4.7055     1.7499     2.1071 N.2     
  12 C12           -3.9500     3.6056     3.5411 C.ar    
  13 C13           -4.4569     3.0243     4.7818 C.ar    
  14 C14           -3.2983     4.8307     3.5747 C.ar    
  15 C15           -3.1205     5.5211     4.7604 C.ar    
  16 C16           -3.5859     5.0183     5.9678 C.ar    
  17 C17           -4.2754     3.7304     5.9945 C.ar    
  18 C18           -3.3815     5.7761     7.2150 C.2     
  19 O19           -3.8819     5.3861     8.2524 O.2     
  20 N20           -2.6399     6.9014     7.2059 N.am    
  21 C21           -4.7611     3.1846     7.1893 C.ar    
  22 C22           -5.1155     1.7882     4.7959 C.ar    
  23 C23           -4.2108     2.4136    -1.3734 C.3     
  24 F24           -4.3434     1.2261    -2.1010 F       
  25 F25           -5.4476     3.0648    -1.3141 F       
  26 F26           -3.2764     3.2438    -2.0018 F       
  27 Cl27           1.5443    -0.7750    -0.0695 Cl      
  28 Cl28           1.4627     2.3452    -0.0442 Cl      
  29 C29           -2.4482     7.6118     8.3750 C.2     
  30 N30           -2.9795     7.1977     9.4763 N.2     
  31 O31           -2.7830     7.9259    10.6748 O.3     
  32 C32           -3.4273     7.3538    11.8148 C.3     
  33 C33           -5.5724     1.2821     5.9765 C.ar    
  34 C34           -5.3983     1.9794     7.1690 C.ar    
  35 C35           -1.1224    -2.1749    -0.0324 C.3     
  36 F36           -2.4289    -2.6748    -0.0128 F       
  37 F37           -0.4718    -2.6156    -1.1898 F       
  38 F38           -0.4309    -2.6329     1.0943 F       
  39 H39           -3.2956    -0.5724     0.0179 H       
  40 H40           -1.2618     3.1763     0.0148 H       
  41 H41           -2.6244     3.7382     0.9597 H       
  42 H42           -4.3149     4.1470     0.5159 H       
  43 H43           -2.9214     5.2539     2.6554 H       
  44 H44           -2.6083     6.4718     4.7463 H       
  45 H45           -2.2407     7.2125     6.3783 H       
  46 H46           -4.6313     3.7149     8.1212 H       
  47 H47           -5.2608     1.2395     3.8771 H       
  48 H48           -1.8539     8.5135     8.3676 H       
  49 H49           -4.5021     7.3070    11.6393 H       
  50 H50           -3.0425     6.3479    11.9829 H       
  51 H51           -3.2288     7.9700    12.6917 H       
  52 H52           -6.0804     0.3291     5.9862 H       
  53 H53           -5.7725     1.5594     8.0909 H       
@<TRIPOS>BOND
   1    1    2 ar
   2    1   28 1
   3    1    6 ar
   4    2    3 ar
   5    2   27 1
   6    3    4 ar
   7    3   35 1
   8    4    5 ar
   9    4   39 1
  10    5    6 ar
  11    5    7 1
  12    6   40 1
  13    7    8 1
  14    7    9 1
  15    7   23 1
  16    8   11 1
  17    9   10 1
  18    9   41 1
  19    9   42 1
  20   10   11 2
  21   10   12 1
  22   12   13 ar
  23   12   14 ar
  24   13   22 ar
  25   13   17 ar
  26   14   15 ar
  27   14   43 1
  28   15   16 ar
  29   15   44 1
  30   16   17 ar
  31   16   18 1
  32   17   21 ar
  33   18   19 2
  34   18   20 am
  35   20   29 1
  36   20   45 1
  37   21   34 ar
  38   21   46 1
  39   22   33 ar
  40   22   47 1
  41   23   24 1
  42   23   25 1
  43   23   26 1
  44   29   30 2
  45   29   48 1
  46   30   31 1
  47   31   32 1
  48   32   49 1
  49   32   50 1
  50   32   51 1
  51   33   34 ar
  52   33   52 1
  53   34   53 1
  54   35   36 1
  55   35   37 1
  56   35   38 1

#	End of record

