#	Name: ASD05380331
#	Creating user name:	WinNT
#	Creation time:	15. 06. 2019 20:59

#	Modifying user name:	WinNT
#	Modification time:	15. 06. 2019 20:59

#	Program:	/corina/corina34_cracker 3.40 0067  02.08.2006

@<TRIPOS>MOLECULE
ASD05380331
  70   74    0    0    0
SMALL
NO_CHARGES


@<TRIPOS>ATOM
   1 N1            -1.0046     1.2749    -0.3925 N.ar    
   2 C2            -0.3075     0.7778     0.6292 C.ar    
   3 C3             0.7421    -0.1023     0.3683 C.ar    
   4 C4             1.0197    -0.4269    -0.9568 C.ar    
   5 N5             0.2803     0.1090    -1.9232 N.ar    
   6 C6            -0.7098     0.9419    -1.6392 C.ar    
   7 N7             2.0572    -1.3000    -1.2657 N.am    
   8 C8             1.9594    -2.7673    -1.2979 C.3     
   9 C9             3.3075    -0.9415    -1.5881 C.2     
  10 O10            4.1182    -1.9747    -1.8418 O.3     
  11 C11            3.3786    -3.2210    -1.6911 C.3     
  12 O12            3.6713     0.2163    -1.6452 O.2     
  13 N13           -1.4564     1.4781    -2.6739 N.3     
  14 C14           -2.5501     2.3134    -2.1566 C.3     
  15 C15           -1.9791     0.4196    -3.5501 C.3     
  16 C16           -2.7462     1.0580    -4.7110 C.3     
  17 O17           -3.7852     1.8906    -4.1887 O.3     
  18 C18           -3.3115     2.9328    -3.3315 C.3     
  19 C19           -0.6430     1.1555     2.0227 C.ar    
  20 C20           -0.7932     2.4971     2.3852 C.ar    
  21 N21           -1.0924     2.7934     3.6372 N.ar    
  22 C22           -1.2497     1.8387     4.5432 C.ar    
  23 N23           -1.1154     0.5554     4.2382 N.ar    
  24 C24           -0.8228     0.1785     3.0067 C.ar    
  25 C25           -0.6160     3.5897     1.3625 C.3     
  26 F26           -1.7225     3.6114     0.5067 F       
  27 F27           -0.5051     4.8235     2.0126 F       
  28 F28            0.5441     3.3485     0.6187 F       
  29 N29           -1.5620     2.1909     5.8427 N.pl3   
  30 C30            0.9416    -3.2152    -2.3487 C.3     
  31 O31           -0.3573    -2.7428    -1.9855 O.3     
  32 C32            3.9848    -4.0665    -0.6008 C.ar    
  33 C33            4.0605    -5.4387    -0.7530 C.ar    
  34 C34            4.6158    -6.2159     0.2449 C.ar    
  35 C35            5.0977    -5.6186     1.4006 C.ar    
  36 C36            5.0206    -4.2416     1.5509 C.ar    
  37 C37            4.4695    -3.4682     0.5476 C.ar    
  38 O38            5.6440    -6.3811     2.3840 O.3     
  39 C39            6.1196    -5.6983     3.5458 C.3     
  40 C40            6.6955    -6.7141     4.5343 C.3     
  41 C41            7.2047    -5.9831     5.7782 C.3     
  42 O42            7.7426    -6.9319     6.7015 O.3     
  43 H43            1.3257    -0.5217     1.1744 H       
  44 H44            1.6896    -3.1547    -0.3155 H       
  45 H45            3.3567    -3.7687    -2.6332 H       
  46 H46           -3.2295     1.6987    -1.5661 H       
  47 H47           -2.1385     3.1057    -1.5314 H       
  48 H48           -1.1506    -0.1705    -3.9421 H       
  49 H49           -2.6493    -0.2253    -2.9819 H       
  50 H50           -2.0639     1.6605    -5.3106 H       
  51 H51           -3.1838     0.2762    -5.3318 H       
  52 H52           -4.1580     3.5069    -2.9546 H       
  53 H53           -2.6456     3.5898    -3.8910 H       
  54 H54           -0.7149    -0.8686     2.7653 H       
  55 H55           -1.6631     3.1258     6.0808 H       
  56 H56           -1.6801     1.5033     6.5166 H       
  57 H57            1.2185    -2.8061    -3.3203 H       
  58 H58            0.9303    -4.3038    -2.4028 H       
  59 H59           -1.0542    -2.9903    -2.6085 H       
  60 H60            3.6849    -5.9032    -1.6527 H       
  61 H61            4.6744    -7.2877     0.1257 H       
  62 H62            5.3951    -3.7742     2.4497 H       
  63 H63            4.4093    -2.3962     0.6641 H       
  64 H64            6.8968    -4.9902     3.2583 H       
  65 H65            5.2949    -5.1619     4.0151 H       
  66 H66            5.9183    -7.4223     4.8218 H       
  67 H67            7.5202    -7.2505     4.0650 H       
  68 H68            7.9819    -5.2750     5.4908 H       
  69 H69            6.3800    -5.4467     6.2475 H       
  70 H70            8.0849    -6.5380     7.5156 H       
@<TRIPOS>BOND
   1    1    2 ar
   2    1    6 ar
   3    2    3 ar
   4    2   19 1
   5    3    4 ar
   6    3   43 1
   7    4    5 ar
   8    4    7 1
   9    5    6 ar
  10    6   13 1
  11    7    8 1
  12    7    9 am
  13    8   30 1
  14    8   11 1
  15    8   44 1
  16    9   10 1
  17    9   12 2
  18   10   11 1
  19   11   32 1
  20   11   45 1
  21   13   14 1
  22   13   15 1
  23   14   18 1
  24   14   46 1
  25   14   47 1
  26   15   16 1
  27   15   48 1
  28   15   49 1
  29   16   17 1
  30   16   50 1
  31   16   51 1
  32   17   18 1
  33   18   52 1
  34   18   53 1
  35   19   20 ar
  36   19   24 ar
  37   20   21 ar
  38   20   25 1
  39   21   22 ar
  40   22   23 ar
  41   22   29 1
  42   23   24 ar
  43   24   54 1
  44   25   26 1
  45   25   27 1
  46   25   28 1
  47   29   55 1
  48   29   56 1
  49   30   31 1
  50   30   57 1
  51   30   58 1
  52   31   59 1
  53   32   33 ar
  54   32   37 ar
  55   33   34 ar
  56   33   60 1
  57   34   35 ar
  58   34   61 1
  59   35   36 ar
  60   35   38 1
  61   36   37 ar
  62   36   62 1
  63   37   63 1
  64   38   39 1
  65   39   40 1
  66   39   64 1
  67   39   65 1
  68   40   41 1
  69   40   66 1
  70   40   67 1
  71   41   42 1
  72   41   68 1
  73   41   69 1
  74   42   70 1

#	End of record

