#	Name: ASD02198027
#	Creating user name:	WinNT
#	Creation time:	15. 06. 2019 20:18

#	Modifying user name:	WinNT
#	Modification time:	15. 06. 2019 20:18

#	Program:	/corina/corina34_cracker 3.40 0067  02.08.2006

@<TRIPOS>MOLECULE
ASD02198027
  48   50    0    0    0
SMALL
NO_CHARGES


@<TRIPOS>ATOM
   1 N1             0.1173     1.2101     0.2360 N.pl3   
   2 C2             0.1148    -0.1611     0.1544 C.2     
   3 C3            -1.0209    -0.9459     0.1891 C.2     
   4 C4            -2.3700    -0.3931     0.3180 C.2     
   5 S5             1.5130    -1.1226    -0.0107 S.3     
   6 C6             0.5724    -2.6055    -0.0267 C.2     
   7 C7            -0.7654    -2.3131     0.0892 C.2     
   8 C8             1.1091    -3.9018    -0.1457 C.2     
   9 O9             0.3842    -4.8750    -0.0270 O.2     
  10 C10            2.5531    -4.0831    -0.4150 C.ar    
  11 N11           -1.7584    -3.2781     0.1070 N.pl3   
  12 C12            1.3292     1.9030     0.3388 C.ar    
  13 C13            1.4782     3.1449    -0.2752 C.ar    
  14 O14           -3.0054    -0.1013    -0.6773 O.2     
  15 C15            2.6799     3.8259    -0.1700 C.ar    
  16 C16            3.7281     3.2732     0.5424 C.ar    
  17 C17            3.5812     2.0406     1.1517 C.ar    
  18 C18            2.3836     1.3576     1.0573 C.ar    
  19 C19            3.2675    -3.0980    -1.0979 C.ar    
  20 C20            4.6135    -3.2728    -1.3453 C.ar    
  21 C21            5.2549    -4.4220    -0.9183 C.ar    
  22 C22            4.5520    -5.4027    -0.2411 C.ar    
  23 C23            3.2071    -5.2372     0.0181 C.ar    
  24 O24            0.4467     3.6868    -0.9763 O.3     
  25 C25            0.6715     4.9628    -1.5789 C.3     
  26 O26           -2.9085    -0.2071     1.5406 O.3     
  27 C27           -4.2504     0.3451     1.5927 C.3     
  28 C28           -4.6890     0.4828     3.0520 C.3     
  29 H29           -0.7206     1.6985     0.2184 H       
  30 H30           -1.5241    -4.2166     0.0352 H       
  31 H31           -2.6884    -3.0155     0.1914 H       
  32 H32            2.7982     4.7886    -0.6450 H       
  33 H33            4.6643     3.8056     0.6229 H       
  34 H34            4.4031     1.6127     1.7065 H       
  35 H35            2.2716     0.3952     1.5344 H       
  36 H36            2.7679    -2.2009    -1.4323 H       
  37 H37            5.1676    -2.5112    -1.8738 H       
  38 H38            6.3086    -4.5543    -1.1148 H       
  39 H39            5.0583    -6.2976     0.0893 H       
  40 H40            2.6596    -6.0032     0.5471 H       
  41 H41            1.4992     4.8908    -2.2844 H       
  42 H42           -0.2286     5.2793    -2.1060 H       
  43 H43            0.9152     5.6918    -0.8060 H       
  44 H44           -4.2585     1.3257     1.1168 H       
  45 H45           -4.9373    -0.3190     1.0680 H       
  46 H46           -4.0021     1.1470     3.5767 H       
  47 H47           -5.6963     0.8974     3.0911 H       
  48 H48           -4.6809    -0.4978     3.5279 H       
@<TRIPOS>BOND
   1    1    2 1
   2    1   12 1
   3    1   29 1
   4    2    3 2
   5    2    5 1
   6    3    4 1
   7    3    7 1
   8    4   14 2
   9    4   26 1
  10    5    6 1
  11    6    7 2
  12    6    8 1
  13    7   11 1
  14    8    9 2
  15    8   10 1
  16   10   19 ar
  17   10   23 ar
  18   11   30 1
  19   11   31 1
  20   12   13 ar
  21   12   18 ar
  22   13   15 ar
  23   13   24 1
  24   15   16 ar
  25   15   32 1
  26   16   17 ar
  27   16   33 1
  28   17   18 ar
  29   17   34 1
  30   18   35 1
  31   19   20 ar
  32   19   36 1
  33   20   21 ar
  34   20   37 1
  35   21   22 ar
  36   21   38 1
  37   22   23 ar
  38   22   39 1
  39   23   40 1
  40   24   25 1
  41   25   41 1
  42   25   42 1
  43   25   43 1
  44   26   27 1
  45   27   28 1
  46   27   44 1
  47   27   45 1
  48   28   46 1
  49   28   47 1
  50   28   48 1

#	End of record

