#	Name: ASD01148055
#	Creating user name:	WinNT
#	Creation time:	15. 06. 2019 19:01

#	Modifying user name:	WinNT
#	Modification time:	15. 06. 2019 19:01

#	Program:	/corina/corina34_cracker 3.40 0067  02.08.2006

@<TRIPOS>MOLECULE
ASD01148055
  32   31    0    0    0
SMALL
NO_CHARGES


@<TRIPOS>ATOM
   1 N1            -0.0162     1.3436     0.0094 N.am    
   2 C2             1.2424     2.0932     0.0014 C.3     
   3 C3             1.0175     3.4741     0.6207 C.3     
   4 O4             0.1244     4.2260    -0.2035 O.3     
   5 C5             1.7238     2.2515    -1.4178 C.2     
   6 O6             1.0815     1.7859    -2.3291 O.2     
   7 O7             2.8662     2.9098    -1.6695 O.3     
   8 C8            -0.1540     5.5386     0.2879 C.3     
   9 F9            -0.7395     5.4477     1.5553 F       
  10 F10            1.0377     6.2661     0.3759 F       
  11 C11            0.0021    -0.0041     0.0020 C.2     
  12 O12           -1.1546    -0.6931     0.0094 O.3     
  13 O13            1.0625    -0.5972    -0.0113 O.2     
  14 C14           -1.0590    -2.1419     0.0007 C.3     
  15 C15           -0.2938    -2.6099     1.2402 C.3     
  16 C16           -2.4647    -2.7459     0.0108 C.3     
  17 C17           -0.3177    -2.5965    -1.2582 C.3     
  18 H18           -0.8627     1.8170     0.0241 H       
  19 H19            1.9909     1.5528     0.5809 H       
  20 H20            0.5856     3.3605     1.6150 H       
  21 H21            1.9703     3.9981     0.6961 H       
  22 H22            3.1343     2.9856    -2.5955 H       
  23 H23           -0.8387     6.0439    -0.3932 H       
  24 H24           -0.8219    -2.2860     2.1370 H       
  25 H25           -0.2220    -3.6975     1.2336 H       
  26 H26            0.7076    -2.1796     1.2329 H       
  27 H27           -3.0098    -2.4124    -0.8722 H       
  28 H28           -2.3929    -3.8335     0.0043 H       
  29 H29           -2.9928    -2.4220     0.9077 H       
  30 H30            0.6838    -2.1662    -1.2654 H       
  31 H31           -0.2459    -3.6841    -1.2647 H       
  32 H32           -0.8628    -2.2631    -2.1412 H       
@<TRIPOS>BOND
   1    1   11 am
   2    1    2 1
   3    1   18 1
   4    2    3 1
   5    2    5 1
   6    2   19 1
   7    3    4 1
   8    3   20 1
   9    3   21 1
  10    4    8 1
  11    5    6 2
  12    5    7 1
  13    7   22 1
  14    8    9 1
  15    8   10 1
  16    8   23 1
  17   11   12 1
  18   11   13 2
  19   12   14 1
  20   14   15 1
  21   14   16 1
  22   14   17 1
  23   15   24 1
  24   15   25 1
  25   15   26 1
  26   16   27 1
  27   16   28 1
  28   16   29 1
  29   17   30 1
  30   17   31 1
  31   17   32 1

#	End of record

