#	Name: ASD00311251
#	Creating user name:	WinNT
#	Creation time:	15. 06. 2019 18:34

#	Modifying user name:	WinNT
#	Modification time:	15. 06. 2019 18:34

#	Program:	/corina/corina34_cracker 3.40 0067  02.08.2006

@<TRIPOS>MOLECULE
ASD00311251
  40   43    0    0    0
SMALL
NO_CHARGES


@<TRIPOS>ATOM
   1 C1            -0.0167     1.3778     0.0096 C.2     
   2 C2             0.0021    -0.0041     0.0020 C.2     
   3 C3             1.2589    -0.6766    -0.0136 C.2     
   4 C4             2.4316     0.0673    -0.0208 C.2     
   5 C5             2.3574     1.4752    -0.0126 C.2     
   6 N6             1.1648     2.0904     0.0022 N.am    
   7 C7            -1.3431    -0.5750     0.0123 C.2     
   8 C8            -2.3224     0.3257     0.0268 C.2     
   9 S9            -1.6794     1.9560     0.0358 S.3     
  10 O10            3.3822     2.1374    -0.0184 O.2     
  11 C11           -1.5955    -2.0355     0.0065 C.ar    
  12 C12           -2.4692    -2.5984     0.9359 C.ar    
  13 C13           -2.7002    -3.9588     0.9257 C.ar    
  14 C14           -2.0670    -4.7637    -0.0043 C.ar    
  15 C15           -1.1987    -4.2110    -0.9286 C.ar    
  16 C16           -0.9646    -2.8510    -0.9321 C.ar    
  17 C17            3.7477    -0.6119    -0.0366 C.ar    
  18 C18            4.5926    -0.4741    -1.1369 C.ar    
  19 C19            5.8216    -1.1118    -1.1451 C.ar    
  20 C20            6.2099    -1.8860    -0.0597 C.ar    
  21 C21            5.3727    -2.0236     1.0317 C.ar    
  22 C22            4.1482    -1.3868     1.0519 C.ar    
  23 O23            6.6480    -0.9804    -2.2160 O.3     
  24 C24            7.9005    -1.6658    -2.1569 C.3     
  25 O25            1.3089    -2.0291    -0.0209 O.3     
  26 H26            1.1326     3.0598     0.0073 H       
  27 H27           -3.3749     0.0839     0.0360 H       
  28 H28           -2.9639    -1.9710     1.6626 H       
  29 H29           -3.3765    -4.3961     1.6453 H       
  30 H30           -2.2509    -5.8280    -0.0085 H       
  31 H31           -0.7069    -4.8444    -1.6520 H       
  32 H32           -0.2903    -2.4199    -1.6572 H       
  33 H33            4.2893     0.1280    -1.9806 H       
  34 H34            7.1690    -2.3825    -0.0683 H       
  35 H35            5.6795    -2.6275     1.8728 H       
  36 H36            3.4985    -1.4924     1.9081 H       
  37 H37            8.4713    -1.3064    -1.3007 H       
  38 H38            7.7243    -2.7364    -2.0526 H       
  39 H39            8.4613    -1.4774    -3.0724 H       
  40 H40            2.2062    -2.3895    -0.0315 H       
@<TRIPOS>BOND
   1    1    2 2
   2    1    6 1
   3    1    9 1
   4    2    3 1
   5    2    7 1
   6    3    4 2
   7    3   25 1
   8    4    5 1
   9    4   17 1
  10    5    6 am
  11    5   10 2
  12    6   26 1
  13    7    8 2
  14    7   11 1
  15    8    9 1
  16    8   27 1
  17   11   12 ar
  18   11   16 ar
  19   12   13 ar
  20   12   28 1
  21   13   14 ar
  22   13   29 1
  23   14   15 ar
  24   14   30 1
  25   15   16 ar
  26   15   31 1
  27   16   32 1
  28   17   18 ar
  29   17   22 ar
  30   18   19 ar
  31   18   33 1
  32   19   20 ar
  33   19   23 1
  34   20   21 ar
  35   20   34 1
  36   21   22 ar
  37   21   35 1
  38   22   36 1
  39   23   24 1
  40   24   37 1
  41   24   38 1
  42   24   39 1
  43   25   40 1

#	End of record

