#	Name: ASD01900579
#	Creating user name:	WinNT
#	Creation time:	15. 06. 2019 19:52

#	Modifying user name:	WinNT
#	Modification time:	15. 06. 2019 19:52

#	Program:	/corina/corina34_cracker 3.40 0067  02.08.2006

@<TRIPOS>MOLECULE
ASD01900579
  42   45    0    0    0
SMALL
NO_CHARGES


@<TRIPOS>ATOM
   1 C1             0.9859     3.1593     0.7507 C.ar    
   2 C2             2.0524     3.6091     1.5314 C.ar    
   3 C3             3.2531     2.9114     1.4973 C.ar    
   4 C4             3.3436     1.7924     0.6862 C.ar    
   5 C5             2.2433     1.4036    -0.0622 C.ar    
   6 N6             1.1177     2.0808    -0.0128 N.ar    
   7 C7            -0.3026     3.8861     0.7788 C.2     
   8 O8            -0.4296     4.8709     1.4799 O.2     
   9 N9            -1.3353     3.4562     0.0272 N.am    
  10 F10            1.9188     4.7066     2.3079 F       
  11 C11           -2.5822     4.0837     0.1268 C.ar    
  12 C12           -2.6549     5.4549     0.3377 C.ar    
  13 C13           -3.8857     6.0737     0.4360 C.ar    
  14 C14           -5.0508     5.3245     0.3239 C.ar    
  15 C15           -4.9774     3.9546     0.1137 C.ar    
  16 C16           -3.7470     3.3367     0.0092 C.ar    
  17 O17           -9.4876     8.9579     0.5440 O.3     
  18 C18           -8.4762     8.4577    -0.3377 C.3     
  19 C19           -8.2901     6.9618    -0.0607 C.3     
  20 N20           -8.0895     6.8253     1.4004 N.am    
  21 C21           -8.9797     7.4554     2.3799 C.3     
  22 C22           -9.1666     8.9162     1.9347 C.3     
  23 C23           -6.9706     6.1226     1.5751 C.2     
  24 N24           -6.3015     5.9530     0.4237 N.am    
  25 C25           -6.9805     6.4628    -0.6266 C.2     
  26 S26           -6.4491     5.5102     3.0864 S.2     
  27 O27           -6.6157     6.5103    -1.7819 O.2     
  28 Cl28          -3.9773     7.7871     0.7000 Cl      
  29 H29            4.0966     3.2342     2.0894 H       
  30 H30            4.2631     1.2281     0.6369 H       
  31 H31            2.3120     0.5313    -0.6953 H       
  32 H32           -1.2144     2.7118    -0.5829 H       
  33 H33           -1.7492     6.0367     0.4250 H       
  34 H34           -5.8830     3.3725     0.0270 H       
  35 H35           -3.6904     2.2714    -0.1595 H       
  36 H36           -8.7863     8.6037    -1.3724 H       
  37 H37           -7.5389     8.9839    -0.1571 H       
  38 H38           -9.1439     6.3801    -0.4083 H       
  39 H39           -9.9420     6.9435     2.3924 H       
  40 H40           -8.5262     7.4228     3.3706 H       
  41 H41           -8.2444     9.4699     2.1108 H       
  42 H42           -9.9758     9.3692     2.5075 H       
@<TRIPOS>BOND
   1    1    2 ar
   2    1    6 ar
   3    1    7 1
   4    2    3 ar
   5    2   10 1
   6    3    4 ar
   7    3   29 1
   8    4    5 ar
   9    4   30 1
  10    5    6 ar
  11    5   31 1
  12    7    8 2
  13    7    9 am
  14    9   11 1
  15    9   32 1
  16   11   12 ar
  17   11   16 ar
  18   12   13 ar
  19   12   33 1
  20   13   14 ar
  21   13   28 1
  22   14   15 ar
  23   14   24 1
  24   15   16 ar
  25   15   34 1
  26   16   35 1
  27   17   18 1
  28   17   22 1
  29   18   19 1
  30   18   36 1
  31   18   37 1
  32   19   20 1
  33   19   25 1
  34   19   38 1
  35   20   21 1
  36   20   23 am
  37   21   22 1
  38   21   39 1
  39   21   40 1
  40   22   41 1
  41   22   42 1
  42   23   24 am
  43   23   26 2
  44   24   25 am
  45   25   27 2

#	End of record

