#	Name: ASD03730294
#	Creating user name:	WinNT
#	Creation time:	15. 06. 2019 20:44

#	Modifying user name:	WinNT
#	Modification time:	15. 06. 2019 20:44

#	Program:	/corina/corina34_cracker 3.40 0067  02.08.2006

@<TRIPOS>MOLECULE
ASD03730294
  54   58    0    0    0
SMALL
NO_CHARGES


@<TRIPOS>ATOM
   1 O1            -0.6179     2.8006     2.1662 O.3     
   2 C2            -0.9298     1.3952     2.1928 C.3     
   3 O3            -0.1106     0.8428     1.1456 O.3     
   4 C4             0.9649     1.6783     1.0440 C.ar    
   5 C5             0.6516     2.8826     1.6701 C.ar    
   6 C6             2.2068     1.5048     0.4601 C.ar    
   7 C7             3.1490     2.5286     0.4898 C.ar    
   8 C8             2.8210     3.7309     1.1089 C.ar    
   9 C9             1.5860     3.9042     1.6982 C.ar    
  10 O10            4.4204     2.5577    -0.0029 O.3     
  11 C11            4.0146     4.6343     0.9513 C.3     
  12 C12            4.8521     3.9268    -0.1230 C.3     
  13 N13            4.1122     6.8573     1.4717 N.am    
  14 C14            3.6254     6.0227     0.5316 C.2     
  15 C15            4.7756     4.8053     2.2321 C.ar    
  16 C16            5.3949     3.9203     3.1069 C.ar    
  17 C17            6.0389     4.4080     4.2458 C.ar    
  18 C18            6.0549     5.7658     4.4932 C.ar    
  19 C19            5.4392     6.6435     3.6239 C.ar    
  20 C20            4.7928     6.1725     2.4820 C.ar    
  21 O21            2.9973     6.3322    -0.4587 O.2     
  22 C22            3.9469     8.3125     1.4381 C.3     
  23 C23            2.6606     8.6968     2.1720 C.3     
  24 C24            2.4880    10.2167     2.1368 C.3     
  25 C25            1.2017    10.6009     2.8707 C.3     
  26 C26            1.0291    12.1208     2.8356 C.3     
  27 C27            5.3712     2.4679     2.8328 C.2     
  28 C28            5.1754     1.6095     3.8238 C.2     
  29 C29            4.8078     2.1134     5.1956 C.3     
  30 Cl30           3.3146     1.2772     5.7629 Cl      
  31 H31           -0.6630     0.9618     3.1566 H       
  32 H32           -1.9862     1.2333     1.9782 H       
  33 H33            2.4467     0.5688    -0.0224 H       
  34 H34            1.3467     4.8396     2.1821 H       
  35 H35            5.9164     4.0176     0.0938 H       
  36 H36            4.6227     4.3196    -1.1136 H       
  37 H37            6.5226     3.7261     4.9296 H       
  38 H38            6.5526     6.1444     5.3737 H       
  39 H39            5.4583     7.7035     3.8299 H       
  40 H40            4.7989     8.7863     1.9257 H       
  41 H41            3.8884     8.6477     0.4025 H       
  42 H42            1.8087     8.2230     1.6843 H       
  43 H43            2.7191     8.3616     3.2075 H       
  44 H44            3.3400    10.6904     2.6245 H       
  45 H45            2.4295    10.5519     1.1013 H       
  46 H46            0.3497    10.1272     2.3831 H       
  47 H47            1.2602    10.2657     3.9063 H       
  48 H48            1.8810    12.5946     3.3233 H       
  49 H49            0.9706    12.4560     1.8001 H       
  50 H50            0.1127    12.3946     3.3585 H       
  51 H51            5.5135     2.1061     1.8252 H       
  52 H52            5.2792     0.5489     3.6480 H       
  53 H53            5.6241     1.9092     5.8885 H       
  54 H54            4.6283     3.1876     5.1520 H       
@<TRIPOS>BOND
   1    1    2 1
   2    1    5 1
   3    2    3 1
   4    2   31 1
   5    2   32 1
   6    3    4 1
   7    4    5 ar
   8    4    6 ar
   9    5    9 ar
  10    6    7 ar
  11    6   33 1
  12    7    8 ar
  13    7   10 1
  14    8    9 ar
  15    8   11 1
  16    9   34 1
  17   10   12 1
  18   11   12 1
  19   11   14 1
  20   11   15 1
  21   12   35 1
  22   12   36 1
  23   13   14 am
  24   13   20 1
  25   13   22 1
  26   14   21 2
  27   15   16 ar
  28   15   20 ar
  29   16   17 ar
  30   16   27 1
  31   17   18 ar
  32   17   37 1
  33   18   19 ar
  34   18   38 1
  35   19   20 ar
  36   19   39 1
  37   22   23 1
  38   22   40 1
  39   22   41 1
  40   23   24 1
  41   23   42 1
  42   23   43 1
  43   24   25 1
  44   24   44 1
  45   24   45 1
  46   25   26 1
  47   25   46 1
  48   25   47 1
  49   26   48 1
  50   26   49 1
  51   26   50 1
  52   27   28 2
  53   27   51 1
  54   28   29 1
  55   28   52 1
  56   29   30 1
  57   29   53 1
  58   29   54 1

#	End of record

