#	Name: ASD05570007
#	Creating user name:	WinNT
#	Creation time:	15. 06. 2019 21:01

#	Modifying user name:	WinNT
#	Modification time:	15. 06. 2019 21:01

#	Program:	/corina/corina34_cracker 3.40 0067  02.08.2006

@<TRIPOS>MOLECULE
ASD05570007
  31   33    0    0    0
SMALL
NO_CHARGES


@<TRIPOS>ATOM
   1 N1             1.2831     1.2280    -2.7794 N.am    
   2 C2             1.1018    -0.0815    -2.5577 C.2     
   3 N3             1.6939    -0.7505    -1.5583 N.am    
   4 C4             2.5268    -0.1347    -0.6942 C.2     
   5 C5             2.7760     1.3055    -0.8736 C.2     
   6 C6             2.0900     1.9707    -1.9939 C.2     
   7 O7             2.2468     3.1589    -2.2057 O.2     
   8 S8             0.0589    -0.9448    -3.6056 S.2     
   9 O9             3.0578    -0.7527     0.2098 O.2     
  10 C10            3.6232     2.0080    -0.0204 C.2     
  11 C11            3.7007     3.4043    -0.1037 C.2     
  12 O12            2.6602     4.2466    -0.2846 O.3     
  13 C13            4.8609     4.1638    -0.0088 C.2     
  14 C14            4.4814     5.4963    -0.1453 C.2     
  15 C15            3.1110     5.5120    -0.3145 C.2     
  16 C16            2.2808     6.7168    -0.4982 C.ar    
  17 C17            1.3628     6.7832    -1.5503 C.ar    
  18 C18            0.5895     7.9120    -1.7161 C.ar    
  19 C19            0.7199     8.9802    -0.8430 C.ar    
  20 C20            1.6272     8.9225     0.2013 C.ar    
  21 C21            2.4041     7.7961     0.3829 C.ar    
  22 Cl22           3.5409     7.7247     1.6930 Cl      
  23 Cl23          -0.2585    10.3977    -1.0601 Cl      
  24 H24            0.8268     1.6503    -3.5239 H       
  25 H25            1.5192    -1.6989    -1.4539 H       
  26 H26            4.2205     1.4764     0.7056 H       
  27 H27            5.8635     3.7920     0.1421 H       
  28 H28            5.1351     6.3556    -0.1206 H       
  29 H29            1.2599     5.9519    -2.2320 H       
  30 H30           -0.1197     7.9643    -2.5289 H       
  31 H31            1.7242     9.7589     0.8777 H       
@<TRIPOS>BOND
   1    1    2 am
   2    1    6 am
   3    1   24 1
   4    2    3 am
   5    2    8 2
   6    3    4 am
   7    3   25 1
   8    4    5 1
   9    4    9 2
  10    5    6 1
  11    5   10 2
  12    6    7 2
  13   10   11 1
  14   10   26 1
  15   11   12 1
  16   11   13 2
  17   12   15 1
  18   13   14 1
  19   13   27 1
  20   14   15 2
  21   14   28 1
  22   15   16 1
  23   16   17 ar
  24   16   21 ar
  25   17   18 ar
  26   17   29 1
  27   18   19 ar
  28   18   30 1
  29   19   20 ar
  30   19   23 1
  31   20   21 ar
  32   20   31 1
  33   21   22 1

#	End of record

