#	Name: ASD01881908
#	Creating user name:	WinNT
#	Creation time:	15. 06. 2019 19:43

#	Modifying user name:	WinNT
#	Modification time:	15. 06. 2019 19:43

#	Program:	/corina/corina34_cracker 3.40 0067  02.08.2006

@<TRIPOS>MOLECULE
ASD01881908
  38   40    0    0    0
SMALL
NO_CHARGES


@<TRIPOS>ATOM
   1 N1             0.0447     1.1976    -0.7520 N.pl3   
   2 N2             0.0358    -0.0526    -0.4418 N.2     
   3 N3             1.2110    -0.4761    -0.1335 N.2     
   4 C4             2.0906     0.5407    -0.2353 C.ar    
   5 C5             1.3354     1.6564    -0.6437 C.ar    
   6 C6             3.4664     0.6768    -0.0314 C.ar    
   7 C7             4.0650     1.9046    -0.2339 C.ar    
   8 C8             3.3068     3.0010    -0.6381 C.ar    
   9 C9             1.9604     2.8808    -0.8416 C.ar    
  10 O10            5.4033     2.0444    -0.0370 O.3     
  11 C11            5.9405     3.3642    -0.1452 C.3     
  12 C12            7.2285     3.4593     0.6753 C.3     
  13 C13            6.2466     3.6715    -1.6124 C.3     
  14 O14            8.2193     2.6001     0.1078 O.3     
  15 C15            9.4678     2.6142     0.8027 C.3     
  16 C16           -1.1185     1.9912    -1.1563 C.3     
  17 C17           -1.7678     2.6119     0.0823 C.3     
  18 C18           -2.9342     3.5767    -0.1401 C.3     
  19 C19           -3.1947     2.1786     0.4241 C.3     
  20 Br20           4.5000    -0.8084     0.5179 Br      
  21 H21            3.7876     3.9556    -0.7924 H       
  22 H22            1.3828     3.7378    -1.1552 H       
  23 H23            5.2148     4.0841     0.2331 H       
  24 H24            7.5904     4.4874     0.6654 H       
  25 H25            7.0283     3.1544     1.7024 H       
  26 H26            6.9724     2.9516    -1.9907 H       
  27 H27            5.3291     3.6037    -2.1969 H       
  28 H28            6.6564     4.6782    -1.6949 H       
  29 H29            9.8762     3.6248     0.7956 H       
  30 H30            9.3141     2.2917     1.8325 H       
  31 H31           10.1655     1.9369     0.3102 H       
  32 H32           -0.8003     2.7826    -1.8350 H       
  33 H33           -1.8395     1.3480    -1.6608 H       
  34 H34           -1.0926     2.8213     0.9120 H       
  35 H35           -3.0267     4.4206     0.5436 H       
  36 H36           -3.2391     3.7692    -1.1687 H       
  37 H37           -3.6710     1.4512    -0.2334 H       
  38 H38           -3.4586     2.1026     1.4789 H       
@<TRIPOS>BOND
   1    1    2 1
   2    1    5 1
   3    1   16 1
   4    2    3 2
   5    3    4 1
   6    4    5 ar
   7    4    6 ar
   8    5    9 ar
   9    6    7 ar
  10    6   20 1
  11    7    8 ar
  12    7   10 1
  13    8    9 ar
  14    8   21 1
  15    9   22 1
  16   10   11 1
  17   11   12 1
  18   11   13 1
  19   11   23 1
  20   12   14 1
  21   12   24 1
  22   12   25 1
  23   13   26 1
  24   13   27 1
  25   13   28 1
  26   14   15 1
  27   15   29 1
  28   15   30 1
  29   15   31 1
  30   16   17 1
  31   16   32 1
  32   16   33 1
  33   17   18 1
  34   17   19 1
  35   17   34 1
  36   18   19 1
  37   18   35 1
  38   18   36 1
  39   19   37 1
  40   19   38 1

#	End of record

