#	Name: ASD01915578
#	Creating user name:	WinNT
#	Creation time:	15. 06. 2019 20:05

#	Modifying user name:	WinNT
#	Modification time:	15. 06. 2019 20:05

#	Program:	/corina/corina34_cracker 3.40 0067  02.08.2006

@<TRIPOS>MOLECULE
ASD01915578
  44   47    0    0    0
SMALL
NO_CHARGES


@<TRIPOS>ATOM
   1 C1            -0.0085     1.4185     0.1024 C.2     
   2 N2             0.0293     0.0471    -0.0152 N.pl3   
   3 C3            -1.2037    -0.7384    -0.1465 C.3     
   4 C4            -2.3387    -0.0229     0.5841 C.3     
   5 N5            -2.4044     1.3988     0.2637 N.am    
   6 C6            -1.2834     2.1504     0.1426 C.2     
   7 C7             1.2863     1.8493     0.1771 C.2     
   8 C8             2.0609     0.6834     0.1104 C.2     
   9 N9             1.2449    -0.3392     0.0027 N.2     
  10 C10            3.5658     0.6155     0.1540 C.3     
  11 O11            4.0988     1.9358     0.2755 O.3     
  12 C12            5.4517     2.0525     0.3288 C.ar    
  13 O13           -1.3292     3.3638     0.0707 O.2     
  14 C14            6.0371     3.3048     0.4466 C.ar    
  15 C15            6.2497     0.9191     0.2711 C.ar    
  16 C16            7.6247     1.0403     0.3254 C.ar    
  17 C17            8.2058     2.2900     0.4371 C.ar    
  18 C18            7.4126     3.4207     0.5005 C.ar    
  19 C19           -3.6498     1.9982     0.0771 C.ar    
  20 C20           -4.2194     2.0281    -1.1959 C.ar    
  21 C21           -5.4596     2.6280    -1.3644 C.ar    
  22 C22           -6.0852     3.1763    -0.2534 C.ar    
  23 C23           -5.4612     3.1097     0.9766 C.ar    
  24 N24           -4.2838     2.5289     1.1099 N.ar    
  25 O25           -3.5692     1.4782    -2.2560 O.3     
  26 C26           -4.2210     1.5508    -3.5256 C.3     
  27 H27           -1.4584    -0.8422    -1.2012 H       
  28 H28           -1.0546    -1.7255     0.2911 H       
  29 H29           -3.2844    -0.4900     0.3090 H       
  30 H30           -2.1922    -0.1354     1.6584 H       
  31 H31            1.6364     2.8669     0.2675 H       
  32 H32            3.8778     0.0175     1.0103 H       
  33 H33            3.9356     0.1574    -0.7632 H       
  34 H34            5.4179     4.1883     0.4958 H       
  35 H35            5.7962    -0.0573     0.1843 H       
  36 H36            8.2463     0.1583     0.2810 H       
  37 H37            9.2810     2.3827     0.4794 H       
  38 H38            7.8689     4.3957     0.5873 H       
  39 H39           -5.9267     2.6675    -2.3373 H       
  40 H40           -7.0505     3.6507    -0.3500 H       
  41 H41           -5.9455     3.5358     1.8428 H       
  42 H42           -5.1803     1.0362    -3.4715 H       
  43 H43           -4.3834     2.5953    -3.7915 H       
  44 H44           -3.5963     1.0761    -4.2824 H       
@<TRIPOS>BOND
   1    1    2 1
   2    1    7 2
   3    1    6 1
   4    2    3 1
   5    2    9 1
   6    3    4 1
   7    3   27 1
   8    3   28 1
   9    4    5 1
  10    4   29 1
  11    4   30 1
  12    5    6 am
  13    5   19 1
  14    6   13 2
  15    7    8 1
  16    7   31 1
  17    8    9 2
  18    8   10 1
  19   10   11 1
  20   10   32 1
  21   10   33 1
  22   11   12 1
  23   12   14 ar
  24   12   15 ar
  25   14   18 ar
  26   14   34 1
  27   15   16 ar
  28   15   35 1
  29   16   17 ar
  30   16   36 1
  31   17   18 ar
  32   17   37 1
  33   18   38 1
  34   19   20 ar
  35   19   24 ar
  36   20   21 ar
  37   20   25 1
  38   21   22 ar
  39   21   39 1
  40   22   23 ar
  41   22   40 1
  42   23   24 ar
  43   23   41 1
  44   25   26 1
  45   26   42 1
  46   26   43 1
  47   26   44 1

#	End of record

