#	Name: ASD01910526
#	Creating user name:	WinNT
#	Creation time:	15. 06. 2019 19:56

#	Modifying user name:	WinNT
#	Modification time:	15. 06. 2019 19:56

#	Program:	/corina/corina34_cracker 3.40 0067  02.08.2006

@<TRIPOS>MOLECULE
ASD01910526
  41   44    0    0    0
SMALL
NO_CHARGES


@<TRIPOS>ATOM
   1 N1             0.0805     0.1647     0.1039 N.2     
   2 C2             0.1250    -1.0141     0.6713 C.2     
   3 N3             1.4304    -1.3159     0.8616 N.2     
   4 C4             2.0997    -0.2924     0.3937 C.2     
   5 O5             1.2043     0.5899    -0.0610 O.3     
   6 C6            -1.0347    -1.8585     1.0362 C.2     
   7 N7            -0.9762    -3.0408     1.6067 N.2     
   8 C8            -2.2163    -3.5048     1.7867 C.2     
   9 C9            -3.0867    -2.5867     1.3150 C.2     
  10 N10           -2.3469    -1.5396     0.8429 N.pl3   
  11 C11            3.9964     1.1023     1.1787 C.3     
  12 C12            3.5986    -0.1379     0.3723 C.3     
  13 C13            4.0748     0.0240    -1.0731 C.3     
  14 C14            5.6000     0.1481    -1.0987 C.3     
  15 C15            6.0204     1.3916    -0.3089 C.3     
  16 N16            5.4439     1.3123     1.0402 N.am    
  17 C17            6.2282     1.4294     2.1300 C.2     
  18 C18            7.6920     1.5557     1.9765 C.ar    
  19 O19            5.7310     1.4310     3.2394 O.2     
  20 C20            8.2252     2.5032     1.1007 C.ar    
  21 C21            9.5922     2.6178     0.9603 C.ar    
  22 C22           10.4378     1.7944     1.6862 C.ar    
  23 C23            9.9139     0.8494     2.5588 C.ar    
  24 C24            8.5473     0.7314     2.7113 C.ar    
  25 F25           11.7762     1.9108     1.5443 F       
  26 F26           10.7432     0.0489     3.2636 F       
  27 H27           -2.4778    -4.4528     2.2332 H       
  28 H28           -4.1640    -2.6637     1.3146 H       
  29 H29           -2.6897    -0.7257     0.4416 H       
  30 H30            3.4628     1.9729     0.7972 H       
  31 H31            3.7480     0.9503     2.2291 H       
  32 H32            4.0622    -1.0214     0.8112 H       
  33 H33            3.7715    -0.8463    -1.6551 H       
  34 H34            3.6302     0.9213    -1.5036 H       
  35 H35            6.0447    -0.7380    -0.6459 H       
  36 H36            5.9403     0.2399    -2.1301 H       
  37 H37            7.1075     1.4305    -0.2401 H       
  38 H38            5.6518     2.2857    -0.8118 H       
  39 H39            7.5678     3.1455     0.5335 H       
  40 H40           10.0046     3.3508     0.2828 H       
  41 H41            8.1399    -0.0032     3.3901 H       
@<TRIPOS>BOND
   1    1    2 2
   2    1    5 1
   3    2    3 1
   4    2    6 1
   5    3    4 2
   6    4    5 1
   7    4   12 1
   8    6    7 2
   9    6   10 1
  10    7    8 1
  11    8    9 2
  12    8   27 1
  13    9   10 1
  14    9   28 1
  15   10   29 1
  16   11   12 1
  17   11   16 1
  18   11   30 1
  19   11   31 1
  20   12   13 1
  21   12   32 1
  22   13   14 1
  23   13   33 1
  24   13   34 1
  25   14   15 1
  26   14   35 1
  27   14   36 1
  28   15   16 1
  29   15   37 1
  30   15   38 1
  31   16   17 am
  32   17   18 1
  33   17   19 2
  34   18   20 ar
  35   18   24 ar
  36   20   21 ar
  37   20   39 1
  38   21   22 ar
  39   21   40 1
  40   22   23 ar
  41   22   25 1
  42   23   24 ar
  43   23   26 1
  44   24   41 1

#	End of record

