#	Name: ASD03092648
#	Creating user name:	WinNT
#	Creation time:	15. 06. 2019 20:32

#	Modifying user name:	WinNT
#	Modification time:	15. 06. 2019 20:32

#	Program:	/corina/corina34_cracker 3.40 0067  02.08.2006

@<TRIPOS>MOLECULE
ASD03092648
  52   55    0    0    0
SMALL
NO_CHARGES


@<TRIPOS>ATOM
   1 C1             1.0915     1.6358    -0.8828 C.ar    
   2 C2             1.0109     0.2397    -1.0604 C.ar    
   3 C3             1.7584    -0.6023    -0.2076 C.ar    
   4 C4             2.5440    -0.0013     0.7742 C.ar    
   5 C5             2.5634     1.3811     0.8772 C.ar    
   6 N6             1.8579     2.1435     0.0709 N.ar    
   7 N7            -0.3019     1.1559    -2.5776 N.2     
   8 N8             0.2706     2.1936    -1.8324 N.pl3   
   9 C9             0.1284     0.0076    -2.1372 C.2     
  10 C10            1.7088    -2.0727    -0.3514 C.2     
  11 O11            0.6670    -2.6185    -0.6588 O.2     
  12 N12            2.8185    -2.8082    -0.1416 N.am    
  13 C13            3.6128    -4.9138    -1.0318 C.ar    
  14 C14            2.7542    -4.2039    -0.2020 C.ar    
  15 C15            1.8287    -4.9027     0.5691 C.ar    
  16 C16            1.8037    -6.2847     0.4752 C.ar    
  17 C17            2.6906    -6.9199    -0.3737 C.ar    
  18 N18            3.5553    -6.2291    -1.0910 N.ar    
  19 C19            0.8783    -4.1736     1.4835 C.3     
  20 C20            4.6158    -4.1722    -1.8774 C.3     
  21 C21            0.0451     3.5627    -2.0219 C.ar    
  22 C22           -0.1501     4.0651    -3.3018 C.ar    
  23 C23           -0.3727     5.4158    -3.4853 C.ar    
  24 C24           -0.4013     6.2675    -2.3962 C.ar    
  25 C25           -0.2068     5.7704    -1.1206 C.ar    
  26 C26            0.0105     4.4199    -0.9299 C.ar    
  27 C27           -0.6445     7.7407    -2.6001 C.3     
  28 F28           -2.0183     7.9990    -2.5427 F       
  29 F29            0.0083     8.4644    -1.5965 F       
  30 F30           -0.1493     8.1265    -3.8504 F       
  31 C31            3.4140     2.0264     1.9408 C.3     
  32 C32           -0.2581    -1.3434    -2.6815 C.3     
  33 H33            3.1317    -0.6066     1.4485 H       
  34 H34            3.6619    -2.3694     0.0513 H       
  35 H35            1.0996    -6.8591     1.0588 H       
  36 H36            2.6755    -7.9971    -0.4504 H       
  37 H37           -0.0809    -4.0441     0.9821 H       
  38 H38            0.7360    -4.7526     2.3960 H       
  39 H39            1.2922    -3.1968     1.7338 H       
  40 H40            5.5706    -4.1279    -1.3535 H       
  41 H41            4.7459    -4.6920    -2.8266 H       
  42 H42            4.2563    -3.1601    -2.0636 H       
  43 H43           -0.1275     3.4005    -4.1527 H       
  44 H44           -0.5243     5.8072    -4.4804 H       
  45 H45           -0.2291     6.4383    -0.2722 H       
  46 H46            0.1576     4.0315     0.0671 H       
  47 H47            4.4098     2.2197     1.5419 H       
  48 H48            2.9577     2.9667     2.2500 H       
  49 H49            3.4898     1.3595     2.7996 H       
  50 H50           -1.0738    -1.7549    -2.0869 H       
  51 H51           -0.5804    -1.2391    -3.7175 H       
  52 H52            0.6003    -2.0135    -2.6337 H       
@<TRIPOS>BOND
   1    1    2 ar
   2    1    6 ar
   3    1    8 1
   4    2    3 ar
   5    2    9 1
   6    3    4 ar
   7    3   10 1
   8    4    5 ar
   9    4   33 1
  10    5    6 ar
  11    5   31 1
  12    7    8 1
  13    7    9 2
  14    8   21 1
  15    9   32 1
  16   10   11 2
  17   10   12 am
  18   12   14 1
  19   12   34 1
  20   13   14 ar
  21   13   18 ar
  22   13   20 1
  23   14   15 ar
  24   15   16 ar
  25   15   19 1
  26   16   17 ar
  27   16   35 1
  28   17   18 ar
  29   17   36 1
  30   19   37 1
  31   19   38 1
  32   19   39 1
  33   20   40 1
  34   20   41 1
  35   20   42 1
  36   21   22 ar
  37   21   26 ar
  38   22   23 ar
  39   22   43 1
  40   23   24 ar
  41   23   44 1
  42   24   25 ar
  43   24   27 1
  44   25   26 ar
  45   25   45 1
  46   26   46 1
  47   27   28 1
  48   27   29 1
  49   27   30 1
  50   31   47 1
  51   31   48 1
  52   31   49 1
  53   32   50 1
  54   32   51 1
  55   32   52 1

#	End of record

