#	Name: ASD03430759
#	Creating user name:	WinNT
#	Creation time:	15. 06. 2019 20:41

#	Modifying user name:	WinNT
#	Modification time:	15. 06. 2019 20:41

#	Program:	/corina/corina34_cracker 3.40 0067  02.08.2006

@<TRIPOS>MOLECULE
ASD03430759
  38   42    0    0    0
SMALL
NO_CHARGES


@<TRIPOS>ATOM
   1 C1            -0.0167     1.3800     0.0096 C.ar    
   2 C2             0.0021    -0.0041     0.0020 C.ar    
   3 C3             1.2079    -0.6753    -0.0133 C.ar    
   4 C4             2.4111     0.0240    -0.0218 C.ar    
   5 C5             2.3851     1.4164    -0.0173 C.ar    
   6 C6             1.1770     2.0877     0.0020 C.ar    
   7 O7             3.4775    -0.8262    -0.0217 O.3     
   8 C8             1.5630    -2.1380    -0.0291 C.3     
   9 C9             3.0430    -2.1359    -0.4353 C.3     
  10 C10            0.4621    -3.8351     1.0799 C.ar    
  11 C11            1.3513    -2.7874     1.3069 C.ar    
  12 C12            0.7180    -2.9216    -0.9909 C.2     
  13 N13            0.1117    -3.8871    -0.2713 N.am    
  14 O14            0.6029    -2.7244    -2.1821 O.2     
  15 C15            1.8377    -2.5415     2.5709 C.ar    
  16 C16            1.4437    -3.3378     3.6320 C.ar    
  17 C17            0.5607    -4.3801     3.4187 C.ar    
  18 C18            0.0709    -4.6308     2.1535 C.ar    
  19 O19            1.1482     3.4527     0.0191 O.3     
  20 O20           -1.2036     2.0534     0.0303 O.3     
  21 C21           -1.4990     2.7624     1.2356 C.3     
  22 C22           -0.8437     4.1347     1.2261 C.3     
  23 C23            0.6696     4.0512     1.2249 C.3     
  24 H24           -0.9252    -0.5577     0.0084 H       
  25 H25            3.3107     1.9728    -0.0290 H       
  26 H26            3.1488    -2.2563    -1.5135 H       
  27 H27            3.5920    -2.9122     0.0977 H       
  28 H28           -0.4967    -4.5418    -0.6481 H       
  29 H29            2.5276    -1.7268     2.7346 H       
  30 H30            1.8251    -3.1457     4.6240 H       
  31 H31            0.2531    -5.0016     4.2467 H       
  32 H32           -0.6186    -5.4469     1.9953 H       
  33 H33           -2.5787     2.8807     1.3272 H       
  34 H34           -1.1273     2.1929     2.0875 H       
  35 H35           -1.1701     4.6756     0.3378 H       
  36 H36           -1.1647     4.6854     2.1103 H       
  37 H37            0.9963     3.4532     2.0756 H       
  38 H38            1.0840     5.0555     1.3135 H       
@<TRIPOS>BOND
   1    1    2 ar
   2    1    6 ar
   3    1   20 1
   4    2    3 ar
   5    2   24 1
   6    3    4 ar
   7    3    8 1
   8    4    5 ar
   9    4    7 1
  10    5    6 ar
  11    5   25 1
  12    6   19 1
  13    7    9 1
  14    8    9 1
  15    8   11 1
  16    8   12 1
  17    9   26 1
  18    9   27 1
  19   10   11 ar
  20   10   13 1
  21   10   18 ar
  22   11   15 ar
  23   12   13 am
  24   12   14 2
  25   13   28 1
  26   15   16 ar
  27   15   29 1
  28   16   17 ar
  29   16   30 1
  30   17   18 ar
  31   17   31 1
  32   18   32 1
  33   19   23 1
  34   20   21 1
  35   21   22 1
  36   21   33 1
  37   21   34 1
  38   22   23 1
  39   22   35 1
  40   22   36 1
  41   23   37 1
  42   23   38 1

#	End of record

