#	Name: ASD01948089
#	Creating user name:	WinNT
#	Creation time:	15. 06. 2019 20:13

#	Modifying user name:	WinNT
#	Modification time:	15. 06. 2019 20:13

#	Program:	/corina/corina34_cracker 3.40 0067  02.08.2006

@<TRIPOS>MOLECULE
ASD01948089
  50   53    0    0    0
SMALL
NO_CHARGES


@<TRIPOS>ATOM
   1 C1            -0.9110     1.7136    -3.3576 C.3     
   2 C2            -1.0374     0.1809    -3.4081 C.3     
   3 C3            -2.0262    -0.1424    -4.5473 C.3     
   4 C4            -1.9572     1.0972    -5.4734 C.3     
   5 C5            -1.8272     2.2682    -4.4679 C.3     
   6 S6            -1.4530     2.3289    -1.7396 S.o2    
   7 O7            -2.8692     2.4369    -1.6960 O.2     
   8 O8            -0.7348     1.6860    -0.6955 O.2     
   9 N9            -0.9223     3.8969    -1.6948 N.am    
  10 C10            1.3745     3.1381    -1.6701 C.2     
  11 C11            0.4573     4.1719    -1.5949 C.2     
  12 C12            0.8965     5.4919    -1.4203 C.2     
  13 C13            2.2654     5.7209    -1.3268 C.2     
  14 C14            3.1446     4.6553    -1.4075 C.2     
  15 N15            2.7114     3.3705    -1.5773 N.am    
  16 S16            1.0723     1.4064    -1.8790 S.3     
  17 C17            3.5863     2.2023    -1.6702 C.3     
  18 C18            2.8165     0.8979    -1.8576 C.3     
  19 O19            4.3453     4.8699    -1.3239 O.2     
  20 C20            2.7881     7.1218    -1.1391 C.3     
  21 N21           -0.0089     6.5404    -1.3433 N.pl3   
  22 C22           -0.9678     6.5633    -0.3248 C.ar    
  23 C23           -1.9452     7.5533    -0.3095 C.ar    
  24 C24           -2.8912     7.5721     0.6984 C.ar    
  25 C25           -2.8655     6.6079     1.6906 C.ar    
  26 C26           -1.8948     5.6230     1.6772 C.ar    
  27 C27           -0.9497     5.5950     0.6695 C.ar    
  28 I28           -4.3001     6.6407     3.2171 I       
  29 F29           -1.9696     8.4951    -1.2779 F       
  30 H30            0.1216     2.0094    -3.5433 H       
  31 H31           -0.0663    -0.2671    -3.6182 H       
  32 H32           -1.4245    -0.1932    -2.4603 H       
  33 H33           -1.7107    -1.0373    -5.0837 H       
  34 H34           -3.0345    -0.2684    -4.1529 H       
  35 H35           -1.0829     1.0464    -6.1223 H       
  36 H36           -2.8705     1.1919    -6.0607 H       
  37 H37           -2.8035     2.5316    -4.0607 H       
  38 H38           -1.3666     3.1325    -4.9464 H       
  39 H39           -1.5604     4.6263    -1.7372 H       
  40 H40            4.2634     2.3366    -2.5137 H       
  41 H41            4.1771     2.1322    -0.7569 H       
  42 H42            3.0068     0.2234    -1.0228 H       
  43 H43            3.0871     0.4239    -2.8012 H       
  44 H44            2.9477     7.3109    -0.0775 H       
  45 H45            3.7316     7.2323    -1.6737 H       
  46 H46            2.0631     7.8356    -1.5303 H       
  47 H47            0.0230     7.2576    -1.9956 H       
  48 H48           -3.6505     8.3399     0.7116 H       
  49 H49           -1.8777     4.8723     2.4535 H       
  50 H50           -0.1947     4.8228     0.6581 H       
@<TRIPOS>BOND
   1    1    2 1
   2    1    5 1
   3    1    6 1
   4    1   30 1
   5    2    3 1
   6    2   31 1
   7    2   32 1
   8    3    4 1
   9    3   33 1
  10    3   34 1
  11    4    5 1
  12    4   35 1
  13    4   36 1
  14    5   37 1
  15    5   38 1
  16    6    7 2
  17    6    8 2
  18    6    9 am
  19    9   11 1
  20    9   39 1
  21   10   11 2
  22   10   15 1
  23   10   16 1
  24   11   12 1
  25   12   13 2
  26   12   21 1
  27   13   14 1
  28   13   20 1
  29   14   15 am
  30   14   19 2
  31   15   17 1
  32   16   18 1
  33   17   18 1
  34   17   40 1
  35   17   41 1
  36   18   42 1
  37   18   43 1
  38   20   44 1
  39   20   45 1
  40   20   46 1
  41   21   22 1
  42   21   47 1
  43   22   23 ar
  44   22   27 ar
  45   23   24 ar
  46   23   29 1
  47   24   25 ar
  48   24   48 1
  49   25   26 ar
  50   25   28 1
  51   26   27 ar
  52   26   49 1
  53   27   50 1

#	End of record

