#	Name: ASD01202043
#	Creating user name:	WinNT
#	Creation time:	15. 06. 2019 19:09

#	Modifying user name:	WinNT
#	Modification time:	15. 06. 2019 19:09

#	Program:	/corina/corina34_cracker 3.40 0067  02.08.2006

@<TRIPOS>MOLECULE
ASD01202043
  43   46    0    0    0
SMALL
NO_CHARGES


@<TRIPOS>ATOM
   1 C1             0.6693     1.5829    -0.5097 C.2     
   2 C2             0.4912     0.2077    -0.3656 C.2     
   3 C3             1.9755     1.9695    -0.5775 C.2     
   4 C4            -0.4530     2.5326    -0.5881 C.2     
   5 C5             1.6439    -0.4833    -0.3201 C.2     
   6 S6             3.0071     0.6158    -0.4618 S.3     
   7 O7            -0.2349     3.7226    -0.7144 O.2     
   8 N8            -1.7219     2.0836    -0.5199 N.am    
   9 C9             1.7483    -1.9475    -0.1730 C.ar    
  10 C10           -2.7807     2.9797    -0.5939 C.2     
  11 S11           -2.6203     4.6694    -0.7781 S.3     
  12 N12           -4.0275     2.6555    -0.5390 N.2     
  13 C13           -4.3768     4.8498    -0.7613 C.2     
  14 C14           -4.9285     3.6399    -0.6245 C.2     
  15 H15           -1.8958     1.1346    -0.4192 H       
  16 C16            2.4712    -2.5028     0.9013 C.ar    
  17 C17            2.5606    -3.8900     1.0264 C.ar    
  18 C18            1.9439    -4.7064     0.1024 C.ar    
  19 C19            1.2330    -4.1598    -0.9548 C.ar    
  20 C20            1.1271    -2.7921    -1.0935 C.ar    
  21 C21            2.4423     3.3938    -0.7338 C.3     
  22 C22            3.1292    -1.6245     1.8863 C.2     
  23 C23           -6.4494     3.7671    -0.6045 C.3     
  24 C24           -6.7428     5.1628    -1.1908 C.3     
  25 C25           -5.4445     5.9241    -0.8558 C.3     
  26 N26            3.9295    -2.1539     2.8327 N.am    
  27 O27            2.9497    -0.4225     1.8447 O.2     
  28 H28           -0.4805    -0.2584    -0.2966 H       
  29 H29            3.1131    -4.3238     1.8467 H       
  30 H30            2.0154    -5.7793     0.2027 H       
  31 H31            0.7550    -4.8101    -1.6725 H       
  32 H32            0.5714    -2.3745    -1.9200 H       
  33 H33            2.5768     3.8421     0.2506 H       
  34 H34            3.3898     3.4086    -1.2723 H       
  35 H35            1.6978     3.9609    -1.2926 H       
  36 H36           -6.9022     2.9933    -1.2244 H       
  37 H37           -6.8215     3.7002     0.4178 H       
  38 H38           -6.8939     5.1093    -2.2690 H       
  39 H39           -7.6024     5.6194    -0.7001 H       
  40 H40           -5.5432     6.4410     0.0988 H       
  41 H41           -5.2045     6.6324    -1.6488 H       
  42 H42            4.0727    -3.1127     2.8659 H       
  43 H43            4.3623    -1.5762     3.4806 H       
@<TRIPOS>BOND
   1    1    2 1
   2    1    3 2
   3    1    4 1
   4    2    5 2
   5    2   28 1
   6    3   21 1
   7    3    6 1
   8    4    7 2
   9    4    8 am
  10    5    9 1
  11    5    6 1
  12    8   15 1
  13    8   10 1
  14    9   16 ar
  15    9   20 ar
  16   10   12 2
  17   10   11 1
  18   11   13 1
  19   12   14 1
  20   13   14 2
  21   13   25 1
  22   14   23 1
  23   16   17 ar
  24   16   22 1
  25   17   18 ar
  26   17   29 1
  27   18   19 ar
  28   18   30 1
  29   19   20 ar
  30   19   31 1
  31   20   32 1
  32   21   33 1
  33   21   34 1
  34   21   35 1
  35   22   26 am
  36   22   27 2
  37   23   24 1
  38   23   36 1
  39   23   37 1
  40   24   25 1
  41   24   38 1
  42   24   39 1
  43   25   40 1
  44   25   41 1
  45   26   42 1
  46   26   43 1

#	End of record

