#	Name: ASD01912577
#	Creating user name:	WinNT
#	Creation time:	15. 06. 2019 19:59

#	Modifying user name:	WinNT
#	Modification time:	15. 06. 2019 19:59

#	Program:	/corina/corina34_cracker 3.40 0067  02.08.2006

@<TRIPOS>MOLECULE
ASD01912577
  43   46    0    0    0
SMALL
NO_CHARGES


@<TRIPOS>ATOM
   1 C1            -0.0187     1.5272     0.0104 C.3     
   2 C2             0.0021    -0.0041     0.0020 C.3     
   3 C3             1.4179     2.0529    -0.0005 C.3     
   4 C4             2.1379     1.5713    -1.2613 C.3     
   5 C5             2.1667     0.0402    -1.2748 C.3     
   6 C6             0.7436    -0.4980    -1.2321 C.3     
   7 C7             0.7498    -2.0384    -1.2751 C.3     
   8 C8             0.5709    -2.3245    -2.7555 C.2     
   9 N9             0.1742    -1.2344    -3.3335 N.2     
  10 O10            0.0306    -0.1551    -2.4288 O.3     
  11 O11            1.4075     3.4854     0.0319 O.3     
  12 C12            2.1167     3.8918     1.2200 C.3     
  13 C13            2.9868     2.6531     1.5498 C.3     
  14 O14            2.1122     1.5669     1.1602 O.3     
  15 C15            0.8005    -3.5817    -3.4014 C.1     
  16 C16            0.9888    -4.6124    -3.9310 C.1     
  17 C17            1.2184    -5.8697    -4.5769 C.ar    
  18 C18            1.0125    -5.9900    -5.9537 C.ar    
  19 N19            1.6313    -6.9131    -3.8630 N.ar    
  20 C20            1.8533    -8.0850    -4.4199 C.ar    
  21 C21            1.6638    -8.2748    -5.7778 C.ar    
  22 C22            1.2389    -7.2118    -6.5623 C.ar    
  23 C23            1.0233    -7.3858    -8.0436 C.3     
  24 F24            1.3141    -8.7056    -8.4053 F       
  25 F25           -0.3095    -7.0992    -8.3577 F       
  26 F26            1.8651    -6.5144    -8.7430 F       
  27 H27           -0.5451     1.8888    -0.8729 H       
  28 H28           -0.5281     1.8792     0.9075 H       
  29 H29            0.5074    -0.3651     0.8978 H       
  30 H30           -1.0206    -0.3808    -0.0141 H       
  31 H31            1.6088     1.9330    -2.1430 H       
  32 H32            3.1584     1.9544    -1.2663 H       
  33 H33            2.6583    -0.3056    -2.1842 H       
  34 H34            2.7172    -0.3201    -0.4058 H       
  35 H35            1.7008    -2.4322    -0.9167 H       
  36 H36           -0.0811    -2.4454    -0.6989 H       
  37 H37            2.7438     4.7598     1.0163 H       
  38 H38            1.4202     4.1005     2.0320 H       
  39 H39            3.9013     2.6495     0.9567 H       
  40 H40            3.2140     2.6083     2.6149 H       
  41 H41            0.6811    -5.1417    -6.5342 H       
  42 H42            2.1885    -8.9099    -3.8088 H       
  43 H43            1.8495    -9.2407    -6.2238 H       
@<TRIPOS>BOND
   1    1    2 1
   2    1    3 1
   3    1   27 1
   4    1   28 1
   5    2    6 1
   6    2   29 1
   7    2   30 1
   8    3    4 1
   9    3   11 1
  10    3   14 1
  11    4    5 1
  12    4   31 1
  13    4   32 1
  14    5    6 1
  15    5   33 1
  16    5   34 1
  17    6    7 1
  18    6   10 1
  19    7    8 1
  20    7   35 1
  21    7   36 1
  22    8    9 2
  23    8   15 1
  24    9   10 1
  25   11   12 1
  26   12   13 1
  27   12   37 1
  28   12   38 1
  29   13   14 1
  30   13   39 1
  31   13   40 1
  32   15   16 3
  33   16   17 1
  34   17   18 ar
  35   17   19 ar
  36   18   22 ar
  37   18   41 1
  38   19   20 ar
  39   20   21 ar
  40   20   42 1
  41   21   22 ar
  42   21   43 1
  43   22   23 1
  44   23   24 1
  45   23   25 1
  46   23   26 1

#	End of record

