#	Name: ASD05303012
#	Creating user name:	WinNT
#	Creation time:	15. 06. 2019 20:58

#	Modifying user name:	WinNT
#	Modification time:	15. 06. 2019 20:58

#	Program:	/corina/corina34_cracker 3.40 0067  02.08.2006

@<TRIPOS>MOLECULE
ASD05303012
  45   47    0    0    0
SMALL
NO_CHARGES


@<TRIPOS>ATOM
   1 C1            -0.5232     0.3508    -2.2861 C.ar    
   2 C2            -0.2944    -1.0074    -2.1709 C.ar    
   3 C3             0.8982    -1.4665    -1.6399 C.ar    
   4 C4             1.8601    -0.5624    -1.2252 C.ar    
   5 C5             1.6343     0.8073    -1.3430 C.ar    
   6 C6             0.4362     1.2580    -1.8744 C.ar    
   7 O7             2.5782     1.6980    -0.9452 O.3     
   8 N8             3.0745    -1.0131    -0.6755 N.am    
   9 C9             3.6036     1.2857    -0.1570 C.ar    
  10 C10            3.8774    -0.0718    -0.0053 C.ar    
  11 C11            4.9266    -0.4868     0.7957 C.ar    
  12 C12            5.7056     0.4512     1.4503 C.ar    
  13 C13            5.4353     1.7987     1.3039 C.ar    
  14 C14            4.3879     2.2180     0.5039 C.ar    
  15 C15            3.4550    -2.3012    -0.7867 C.2     
  16 O16            2.6834    -3.1265    -1.2367 O.2     
  17 N17            4.6906    -2.6748    -0.3990 N.am    
  18 C18            5.8153    -1.7473    -0.5435 C.3     
  19 C19            6.7993    -1.9554     0.6094 C.3     
  20 C20            6.5250    -2.0095    -1.8734 C.3     
  21 C21            4.9089    -4.0084     0.1668 C.3     
  22 C22            6.1142    -4.6601    -0.5139 C.3     
  23 C23            5.1748    -3.8879     1.6686 C.3     
  24 H24           -1.4539     0.7053    -2.7037 H       
  25 H25           -1.0471    -1.7108    -2.4951 H       
  26 H26            1.0776    -2.5276    -1.5490 H       
  27 H27            0.2518     2.3181    -1.9675 H       
  28 H28            5.1368    -1.5400     0.9100 H       
  29 H29            6.5249     0.1300     2.0764 H       
  30 H30            6.0445     2.5278     1.8174 H       
  31 H31            4.1820     3.2723     0.3930 H       
  32 H32            5.4455    -0.7221    -0.5250 H       
  33 H33            7.2590    -2.9399     0.5215 H       
  34 H34            7.5728    -1.1885     0.5699 H       
  35 H35            6.2672    -1.8863     1.5582 H       
  36 H36            5.7997    -1.9704    -2.6861 H       
  37 H37            7.2904    -1.2499    -2.0326 H       
  38 H38            6.9904    -2.9948    -1.8487 H       
  39 H39            4.0232    -4.6221     0.0027 H       
  40 H40            6.2026    -5.6950    -0.1833 H       
  41 H41            5.9786    -4.6345    -1.5952 H       
  42 H42            7.0201    -4.1152    -0.2483 H       
  43 H43            4.3429    -3.3686     2.1444 H       
  44 H44            5.2765    -4.8834     2.1006 H       
  45 H45            6.0945    -3.3258     1.8308 H       
@<TRIPOS>BOND
   1    1    2 ar
   2    1    6 ar
   3    1   24 1
   4    2    3 ar
   5    2   25 1
   6    3    4 ar
   7    3   26 1
   8    4    5 ar
   9    4    8 1
  10    5    6 ar
  11    5    7 1
  12    6   27 1
  13    7    9 1
  14    8   10 1
  15    8   15 am
  16    9   10 ar
  17    9   14 ar
  18   10   11 ar
  19   11   12 ar
  20   11   28 1
  21   12   13 ar
  22   12   29 1
  23   13   14 ar
  24   13   30 1
  25   14   31 1
  26   15   16 2
  27   15   17 am
  28   17   18 1
  29   17   21 1
  30   18   19 1
  31   18   20 1
  32   18   32 1
  33   19   33 1
  34   19   34 1
  35   19   35 1
  36   20   36 1
  37   20   37 1
  38   20   38 1
  39   21   22 1
  40   21   23 1
  41   21   39 1
  42   22   40 1
  43   22   41 1
  44   22   42 1
  45   23   43 1
  46   23   44 1
  47   23   45 1

#	End of record

