#	Name: ASD03091180
#	Creating user name:	WinNT
#	Creation time:	15. 06. 2019 20:30

#	Modifying user name:	WinNT
#	Modification time:	15. 06. 2019 20:30

#	Program:	/corina/corina34_cracker 3.40 0067  02.08.2006

@<TRIPOS>MOLECULE
ASD03091180
  71   75    0    0    0
SMALL
NO_CHARGES


@<TRIPOS>ATOM
   1 C1            -0.0287     1.4689     0.0324 C.2     
   2 C2             0.0036    -0.0376     0.0104 C.3     
   3 O3             1.0084     2.0977     0.0347 O.2     
   4 N4            -1.2100     2.1175     0.0441 N.am    
   5 C5            -1.2414     3.5820     0.0656 C.3     
   6 C6            -2.5605     4.0728    -0.5345 C.3     
   7 C7            -1.1239     4.0736     1.5097 C.3     
   8 N8             3.3294    -1.0139     1.2301 N.2     
   9 C9             2.0868    -0.6111     1.1699 C.2     
  10 N10            1.3949    -0.4961    -0.0056 N.am    
  11 C11            1.9883    -0.8039    -1.1824 C.2     
  12 C12            3.3859    -1.2593    -1.1388 C.ar    
  13 C13            4.0833    -1.5997    -2.2955 C.ar    
  14 C14            5.3980    -2.0229    -2.1959 C.ar    
  15 C15            6.0198    -2.1086    -0.9501 C.ar    
  16 C16            5.3490    -1.7788     0.1922 C.ar    
  17 C17            4.0208    -1.3474     0.1213 C.ar    
  18 O18            1.3879    -0.7078    -2.2369 O.2     
  19 C19            1.3971    -0.2637     2.4303 C.ar    
  20 C20            0.1885    -0.8784     2.7595 C.ar    
  21 C21           -0.4518    -0.5479     3.9417 C.ar    
  22 C22            0.1084     0.3927     4.7960 C.ar    
  23 C23            1.3055     1.0029     4.4709 C.ar    
  24 C24            1.9553     0.6764     3.2981 C.ar    
  25 O25           -1.6293    -1.1439     4.2660 O.3     
  26 C26           -2.2348    -0.7553     5.5007 C.3     
  27 C27           -3.5422    -1.5265     5.6926 C.3     
  28 N28            7.1053    -2.0659    -6.1221 N.3     
  29 C29            5.9208    -2.8663    -5.7763 C.3     
  30 C30            5.2407    -2.3107    -4.5347 C.3     
  31 N31            6.1062    -2.3668    -3.3506 N.3     
  32 C32            7.2804    -1.5007    -3.5258 C.3     
  33 C33            8.4548    -2.3017    -4.0678 C.3     
  34 C34            8.3089    -2.6681    -5.5309 C.3     
  35 C35            7.0098    -0.6425    -5.8785 C.3     
  36 C36            6.9008    -0.3178    -4.3977 C.3     
  37 H37           -0.4964    -0.4248     0.8982 H       
  38 H38           -0.5083    -0.3989    -0.8816 H       
  39 H39           -2.0395     1.6147     0.0383 H       
  40 H40           -0.4086     3.9719    -0.5198 H       
  41 H41           -3.3932     3.6829     0.0509 H       
  42 H42           -2.5838     5.1624    -0.5185 H       
  43 H43           -2.6441     3.7226    -1.5633 H       
  44 H44           -1.9567     3.6837     2.0951 H       
  45 H45           -0.1842     3.7240     1.9372 H       
  46 H46           -1.1473     5.1632     1.5257 H       
  47 H47            3.6031    -1.5346    -3.2607 H       
  48 H48            7.0456    -2.4407    -0.8884 H       
  49 H49            5.8437    -1.8509     1.1496 H       
  50 H50           -0.2463    -1.6095     2.0941 H       
  51 H51           -0.3932     0.6487     5.7176 H       
  52 H52            1.7358     1.7342     5.1391 H       
  53 H53            2.8928     1.1514     3.0495 H       
  54 H54           -1.5566    -0.9792     6.3242 H       
  55 H55           -2.4433     0.3144     5.4823 H       
  56 H56           -4.2203    -1.3027     4.8691 H       
  57 H57           -3.3336    -2.5963     5.7110 H       
  58 H58           -4.0040    -1.2301     6.6344 H       
  59 H59            5.2184    -2.8468    -6.6096 H       
  60 H60            6.2255    -3.8959    -5.5884 H       
  61 H61            4.9618    -1.2733    -4.7193 H       
  62 H62            4.3369    -2.8879    -4.3391 H       
  63 H63            7.5600    -1.1099    -2.5474 H       
  64 H64            9.3650    -1.7150    -3.9435 H       
  65 H65            8.5508    -3.2183    -3.4858 H       
  66 H66            8.2454    -3.7525    -5.6216 H       
  67 H67            9.1861    -2.3176    -6.0747 H       
  68 H68            7.8964    -0.1544    -6.2831 H       
  69 H69            6.1297    -0.2545    -6.3912 H       
  70 H70            5.8745    -0.0272    -4.1734 H       
  71 H71            7.5621     0.5179    -4.1687 H       
@<TRIPOS>BOND
   1    1    2 1
   2    1    3 2
   3    1    4 am
   4    2   10 1
   5    2   37 1
   6    2   38 1
   7    4    5 1
   8    4   39 1
   9    5    6 1
  10    5    7 1
  11    5   40 1
  12    6   41 1
  13    6   42 1
  14    6   43 1
  15    7   44 1
  16    7   45 1
  17    7   46 1
  18    8    9 2
  19    8   17 1
  20    9   10 1
  21    9   19 1
  22   10   11 am
  23   11   12 1
  24   11   18 2
  25   12   13 ar
  26   12   17 ar
  27   13   14 ar
  28   13   47 1
  29   14   15 ar
  30   14   31 1
  31   15   16 ar
  32   15   48 1
  33   16   17 ar
  34   16   49 1
  35   19   20 ar
  36   19   24 ar
  37   20   21 ar
  38   20   50 1
  39   21   22 ar
  40   21   25 1
  41   22   23 ar
  42   22   51 1
  43   23   24 ar
  44   23   52 1
  45   24   53 1
  46   25   26 1
  47   26   27 1
  48   26   54 1
  49   26   55 1
  50   27   56 1
  51   27   57 1
  52   27   58 1
  53   28   29 1
  54   28   34 1
  55   28   35 1
  56   29   30 1
  57   29   59 1
  58   29   60 1
  59   30   31 1
  60   30   61 1
  61   30   62 1
  62   31   32 1
  63   32   33 1
  64   32   36 1
  65   32   63 1
  66   33   34 1
  67   33   64 1
  68   33   65 1
  69   34   66 1
  70   34   67 1
  71   35   36 1
  72   35   68 1
  73   35   69 1
  74   36   70 1
  75   36   71 1

#	End of record

