#	Name: ASD01884150
#	Creating user name:	WinNT
#	Creation time:	15. 06. 2019 19:47

#	Modifying user name:	WinNT
#	Modification time:	15. 06. 2019 19:47

#	Program:	/corina/corina34_cracker 3.40 0067  02.08.2006

@<TRIPOS>MOLECULE
ASD01884150
  14   14    0    0    0
SMALL
NO_CHARGES


@<TRIPOS>ATOM
   1 C1            -0.0167     1.3829     0.0096 C.ar    
   2 C2             0.0021    -0.0041     0.0020 C.ar    
   3 C3            -1.2102    -0.6813     0.0099 C.ar    
   4 C4            -2.3858     0.0430     0.0250 C.ar    
   5 N5            -2.3664     1.3621     0.0319 N.ar    
   6 C6            -1.2340     2.0398     0.0306 C.ar    
   7 Cl7           -1.2725     3.7754     0.0405 Cl      
   8 Cl8            1.5051    -0.8725    -0.0175 Cl      
   9 C9             1.2721     2.1639     0.0015 C.3     
  10 F10            1.6583     2.4126    -1.3199 F       
  11 F11            1.0853     3.3789     0.6694 F       
  12 F12            2.2691     1.4251     0.6476 F       
  13 H13           -1.2333    -1.7610     0.0040 H       
  14 H14           -3.3325    -0.4767     0.0308 H       
@<TRIPOS>BOND
   1    1    2 ar
   2    1    9 1
   3    1    6 ar
   4    2    3 ar
   5    2    8 1
   6    3    4 ar
   7    3   13 1
   8    4    5 ar
   9    4   14 1
  10    5    6 ar
  11    6    7 1
  12    9   10 1
  13    9   11 1
  14    9   12 1

#	End of record

