#	Name: ASD01410725
#	Creating user name:	WinNT
#	Creation time:	15. 06. 2019 19:18

#	Modifying user name:	WinNT
#	Modification time:	15. 06. 2019 19:18

#	Program:	/corina/corina34_cracker 3.40 0067  02.08.2006

@<TRIPOS>MOLECULE
ASD01410725
  98  104    0    0    0
SMALL
NO_CHARGES


@<TRIPOS>ATOM
   1 N1             3.1276     2.9807     0.7000 N.3     
   2 C2             1.6641    -0.2063    -0.7578 C.3     
   3 C3             2.3382     1.1846    -0.7391 C.3     
   4 N4             3.7606     0.8991    -1.0318 N.am    
   5 C5             3.8317    -0.3186    -1.8434 C.3     
   6 C6             2.3962    -0.8801    -1.9514 C.3     
   7 O7             1.9089    -0.9125     0.4602 O.3     
   8 C8             4.3583     0.0103    -3.2165 C.2     
   9 O9             4.6489     1.1540    -3.4967 O.2     
  10 N10            4.5064    -0.9665    -4.1333 N.am    
  11 C11            2.2917     1.7763     0.6732 C.3     
  12 C12            4.5396     2.7358     0.4382 C.3     
  13 C13            4.7761     1.6379    -0.5563 C.2     
  14 O14            5.9052     1.4138    -0.9381 O.2     
  15 C15            5.1713     4.0241    -0.0928 C.3     
  16 C16            4.6277     4.3196    -1.4921 C.3     
  17 C17            4.9007    -0.6311    -5.5038 C.3     
  18 C18            3.8943     0.1661    -6.2930 C.2     
  19 N19            2.6616     0.3800    -5.7918 N.am    
  20 O20            4.1937     0.6152    -7.3790 O.2     
  21 S21            1.5173     1.1498    -6.7084 S.o2    
  22 C22            1.2131     0.0204    -8.0949 C.3     
  23 C23            6.3826    -0.3544    -5.7650 C.3     
  24 C24            5.7463    -1.6534    -6.2659 C.3     
  25 C25            0.2737     0.4997    -9.2034 C.3     
  26 C26            1.7792     0.4111    -9.4616 C.3     
  27 O27            0.3781     1.2182    -5.8618 O.2     
  28 O28            2.1663     2.3305    -7.1601 O.2     
  29 C29            6.7242     0.6941    -6.7921 C.2     
  30 C30            7.4202     1.7484    -6.4454 C.2     
  31 C31            1.0296    -1.8900     0.7925 C.ar    
  32 C32            1.1887    -2.6353     1.9842 C.ar    
  33 C33           -0.0398    -2.1781    -0.0143 C.ar    
  34 C34           -0.9343    -3.1932     0.3515 C.ar    
  35 N35           -0.7735    -3.8880     1.4651 N.ar    
  36 C36            0.2475    -3.6480     2.2940 C.ar    
  37 C37           -2.0839    -3.4937    -0.5272 C.2     
  38 C38            0.4077    -4.3936     3.4750 C.ar    
  39 C39            1.4689    -4.1246     4.3104 C.ar    
  40 C40            2.3878    -3.1189     3.9970 C.ar    
  41 C41            2.2584    -2.3872     2.8565 C.ar    
  42 Cl42          -0.7255    -5.6454     3.8780 Cl      
  43 O43            1.6243    -4.8444     5.4522 O.3     
  44 C44            2.7444    -4.5183     6.2774 C.3     
  45 C45            4.8275     5.1843     0.8434 C.3     
  46 S46           -2.4542    -2.6743    -2.0423 S.3     
  47 C47           -3.8723    -3.7013    -2.2449 C.2     
  48 C48           -3.9380    -4.5344    -1.1983 C.2     
  49 N49           -2.9829    -4.4106    -0.3087 N.2     
  50 C50           -5.0382    -5.5541    -1.0548 C.3     
  51 C51           -6.2572    -4.9005    -0.4008 C.3     
  52 C52           -5.4244    -6.0856    -2.4366 C.3     
  53 C53            5.2255     2.3628     1.7540 C.3     
  54 H54            2.7623     3.6882     0.0801 H       
  55 H55            0.5947    -0.1211    -0.9506 H       
  56 H56            1.9007     1.8523    -1.4813 H       
  57 H57            4.4803    -1.0492    -1.3600 H       
  58 H58            2.3973    -1.9644    -1.8401 H       
  59 H59            1.9391    -0.5894    -2.8973 H       
  60 H60            4.3520    -1.8915    -3.8856 H       
  61 H61            2.6751     1.0484     1.3882 H       
  62 H62            1.2644     2.0376     0.9272 H       
  63 H63            6.2537     3.9048    -0.1412 H       
  64 H64            3.5453     4.4388    -1.4437 H       
  65 H65            5.0778     5.2374    -1.8704 H       
  66 H66            4.8727     3.4930    -2.1591 H       
  67 H67            2.4448     0.0830    -4.8942 H       
  68 H68            1.1937    -1.0397    -7.8422 H       
  69 H69            7.0642    -0.4219    -4.9171 H       
  70 H70            6.0096    -2.5754    -5.7474 H       
  71 H71            5.5750    -1.7492    -7.3380 H       
  72 H72           -0.3634    -0.2452    -9.6803 H       
  73 H73           -0.1615     1.4936    -9.0996 H       
  74 H74            2.3344     1.3467    -9.5276 H       
  75 H75            2.1325    -0.3921   -10.1082 H       
  76 H76            6.3952     0.5764    -7.8140 H       
  77 H77            7.7491     1.8661    -5.4234 H       
  78 H78            7.6650     2.4998    -7.1814 H       
  79 H79           -0.1930    -1.6246    -0.9290 H       
  80 H80            3.2132    -2.9235     4.6654 H       
  81 H81            2.9754    -1.6131     2.6264 H       
  82 H82            3.6657    -4.6621     5.7128 H       
  83 H83            2.6714    -3.4780     6.5946 H       
  84 H84            2.7507    -5.1659     7.1541 H       
  85 H85            3.7478     5.3336     0.8556 H       
  86 H86            5.1737     4.9532     1.8508 H       
  87 H87            5.3159     6.0927     0.4909 H       
  88 H88           -4.5680    -3.6649    -3.0701 H       
  89 H89           -4.6905    -6.3787    -0.4325 H       
  90 H90           -6.6050    -4.0759    -1.0230 H       
  91 H91           -7.0530    -5.6381    -0.2970 H       
  92 H92           -5.9821    -4.5219     0.5836 H       
  93 H93           -6.2202    -6.8231    -2.3328 H       
  94 H94           -5.7722    -5.2610    -3.0588 H       
  95 H95           -4.5560    -6.5512    -2.9025 H       
  96 H96            6.2953     2.2414     1.5844 H       
  97 H97            5.0610     3.1532     2.4863 H       
  98 H98            4.8087     1.4279     2.1288 H       
@<TRIPOS>BOND
   1    1   11 1
   2    1   12 1
   3    1   54 1
   4    2    3 1
   5    2    7 1
   6    2    6 1
   7    2   55 1
   8    3    4 1
   9    3   11 1
  10    3   56 1
  11    4    5 1
  12    4   13 am
  13    5    6 1
  14    5    8 1
  15    5   57 1
  16    6   58 1
  17    6   59 1
  18    7   31 1
  19    8    9 2
  20    8   10 am
  21   10   17 1
  22   10   60 1
  23   11   61 1
  24   11   62 1
  25   12   13 1
  26   12   15 1
  27   12   53 1
  28   13   14 2
  29   15   16 1
  30   15   45 1
  31   15   63 1
  32   16   64 1
  33   16   65 1
  34   16   66 1
  35   17   18 1
  36   17   23 1
  37   17   24 1
  38   18   19 am
  39   18   20 2
  40   19   21 am
  41   19   67 1
  42   21   22 1
  43   21   27 2
  44   21   28 2
  45   22   25 1
  46   22   26 1
  47   22   68 1
  48   23   24 1
  49   23   29 1
  50   23   69 1
  51   24   70 1
  52   24   71 1
  53   25   26 1
  54   25   72 1
  55   25   73 1
  56   26   74 1
  57   26   75 1
  58   29   30 2
  59   29   76 1
  60   30   77 1
  61   30   78 1
  62   31   32 ar
  63   31   33 ar
  64   32   36 ar
  65   32   41 ar
  66   33   34 ar
  67   33   79 1
  68   34   35 ar
  69   34   37 1
  70   35   36 ar
  71   36   38 ar
  72   37   46 1
  73   37   49 2
  74   38   39 ar
  75   38   42 1
  76   39   40 ar
  77   39   43 1
  78   40   41 ar
  79   40   80 1
  80   41   81 1
  81   43   44 1
  82   44   82 1
  83   44   83 1
  84   44   84 1
  85   45   85 1
  86   45   86 1
  87   45   87 1
  88   46   47 1
  89   47   48 2
  90   47   88 1
  91   48   49 1
  92   48   50 1
  93   50   51 1
  94   50   52 1
  95   50   89 1
  96   51   90 1
  97   51   91 1
  98   51   92 1
  99   52   93 1
 100   52   94 1
 101   52   95 1
 102   53   96 1
 103   53   97 1
 104   53   98 1

#	End of record

