#	Name: ASD05313201
#	Creating user name:	WinNT
#	Creation time:	15. 06. 2019 20:58

#	Modifying user name:	WinNT
#	Modification time:	15. 06. 2019 20:58

#	Program:	/corina/corina34_cracker 3.40 0067  02.08.2006

@<TRIPOS>MOLECULE
ASD05313201
  38   41    0    0    0
SMALL
NO_CHARGES


@<TRIPOS>ATOM
   1 C1            -0.0623     0.8452     0.9899 C.2     
   2 C2             0.1154    -0.5968     0.5779 C.3     
   3 N3             0.9481     1.7514     1.0128 N.pl3   
   4 N4             1.4612    -0.7123    -0.0151 N.am    
   5 C5             2.5769    -0.0328     0.6607 C.3     
   6 C6             2.3348     1.4812     0.6373 C.3     
   7 N7            -0.8854     2.6812     1.6510 N.2     
   8 N8            -1.1448     1.4482     1.3801 N.2     
   9 C9             0.3953     2.9210     1.4428 C.2     
  10 S10            0.3470     5.6986     2.1976 S.3     
  11 C11            1.0933     4.2035     1.6396 C.2     
  12 N12            2.3627     4.4143     1.4288 N.2     
  13 C13            2.8123     5.6249     1.6587 C.2     
  14 C14            1.9066     6.5123     2.0874 C.2     
  15 C15            1.6627    -1.4207    -1.1438 C.2     
  16 O16            2.7576    -1.4245    -1.6716 O.2     
  17 C17            0.5519    -2.1931    -1.7400 C.ar    
  18 C18            0.3182    -2.1371    -3.1150 C.ar    
  19 C19           -0.7204    -2.8612    -3.6653 C.ar    
  20 C20           -1.5290    -3.6416    -2.8557 C.ar    
  21 C21           -1.3018    -3.7007    -1.4926 C.ar    
  22 C22           -0.2637    -2.9858    -0.9312 C.ar    
  23 C23            1.1972    -1.2878    -3.9966 C.3     
  24 Cl24          -1.0139    -2.7931    -5.3749 Cl      
  25 H25            0.0364    -1.2454     1.4503 H       
  26 H26           -0.6404    -0.8690    -0.1589 H       
  27 H27            2.6400    -0.3755     1.6935 H       
  28 H28            3.5089    -0.2604     0.1432 H       
  29 H29            2.5218     1.8645    -0.3658 H       
  30 H30            3.0053     1.9683     1.3453 H       
  31 H31            3.8491     5.8891     1.5116 H       
  32 H32            2.0983     7.5484     2.3242 H       
  33 H33           -2.3406    -4.2061    -3.2906 H       
  34 H34           -1.9361    -4.3108    -0.8667 H       
  35 H35           -0.0852    -3.0363     0.1327 H       
  36 H36            2.0874    -1.8524    -4.2739 H       
  37 H37            0.6486    -1.0094    -4.8964 H       
  38 H38            1.4913    -0.3875    -3.4571 H       
@<TRIPOS>BOND
   1    1    2 1
   2    1    3 1
   3    1    8 2
   4    2    4 1
   5    2   25 1
   6    2   26 1
   7    3    6 1
   8    3    9 1
   9    4    5 1
  10    4   15 am
  11    5    6 1
  12    5   27 1
  13    5   28 1
  14    6   29 1
  15    6   30 1
  16    7    8 1
  17    7    9 2
  18    9   11 1
  19   10   11 1
  20   10   14 1
  21   11   12 2
  22   12   13 1
  23   13   14 2
  24   13   31 1
  25   14   32 1
  26   15   16 2
  27   15   17 1
  28   17   18 ar
  29   17   22 ar
  30   18   19 ar
  31   18   23 1
  32   19   20 ar
  33   19   24 1
  34   20   21 ar
  35   20   33 1
  36   21   22 ar
  37   21   34 1
  38   22   35 1
  39   23   36 1
  40   23   37 1
  41   23   38 1

#	End of record

