#	Name: ASD01230458
#	Creating user name:	WinNT
#	Creation time:	15. 06. 2019 19:14

#	Modifying user name:	WinNT
#	Modification time:	15. 06. 2019 19:14

#	Program:	/corina/corina34_cracker 3.40 0067  02.08.2006

@<TRIPOS>MOLECULE
ASD01230458
  44   46    0    0    0
SMALL
NO_CHARGES


@<TRIPOS>ATOM
   1 S1            -0.0203     1.6432     0.0111 S.o2    
   2 N2             0.0021    -0.0041     0.0020 N.am    
   3 C3             1.0582    -0.7115     0.0766 C.2     
   4 N4             2.3239    -0.2014     0.2156 N.pl3   
   5 C5             2.5547     1.1284     0.7685 C.3     
   6 C6             1.7187     2.1517    -0.0028 C.3     
   7 C7             0.9691    -2.2282     0.0263 C.3     
   8 C8             2.0432    -2.7791     0.9676 C.3     
   9 C9             3.4382    -2.3754     0.5096 C.3     
  10 C10            3.4443    -1.0396    -0.2239 C.3     
  11 C11           -0.3942    -2.6772     0.4854 C.ar    
  12 C12           -1.2061    -3.4011    -0.3681 C.ar    
  13 C13           -2.4563    -3.8138     0.0505 C.ar    
  14 C14           -2.8969    -3.5014     1.3283 C.ar    
  15 C15           -2.0803    -2.7749     2.1828 C.ar    
  16 C16           -0.8287    -2.3694     1.7614 C.ar    
  17 O17           -4.1265    -3.9059     1.7422 O.3     
  18 C18           -4.5140    -3.5484     3.0704 C.3     
  19 C19           -5.9178    -4.0866     3.3544 C.3     
  20 C20           -6.3327    -3.7038     4.7764 C.3     
  21 O21           -0.6472     1.9881    -1.2166 O.2     
  22 O22           -0.6237     1.9749     1.2541 O.2     
  23 H23            2.2653     1.1405     1.8193 H       
  24 H24            3.6113     1.3809     0.6793 H       
  25 H25            2.0726     2.2083    -1.0322 H       
  26 H26            1.8152     3.1296     0.4690 H       
  27 H27            1.1525    -2.5769    -0.9900 H       
  28 H28            1.8709    -2.3915     1.9717 H       
  29 H29            1.9753    -3.8668     0.9892 H       
  30 H30            4.0887    -2.3026     1.3812 H       
  31 H31            3.8279    -3.1455    -0.1561 H       
  32 H32            3.3602    -1.2183    -1.2958 H       
  33 H33            4.3816    -0.5221    -0.0194 H       
  34 H34           -0.8629    -3.6438    -1.3629 H       
  35 H35           -3.0903    -4.3790    -0.6167 H       
  36 H36           -2.4210    -2.5304     3.1780 H       
  37 H37           -0.1907    -1.8079     2.4279 H       
  38 H38           -3.8093    -3.9778     3.7825 H       
  39 H39           -4.5142    -2.4629     3.1691 H       
  40 H40           -6.6225    -3.6571     2.6423 H       
  41 H41           -5.9176    -5.1721     3.2557 H       
  42 H42           -5.6280    -4.1332     5.4886 H       
  43 H43           -6.3329    -2.6183     4.8751 H       
  44 H44           -7.3328    -4.0872     4.9788 H       
@<TRIPOS>BOND
   1    1    2 am
   2    1    6 1
   3    1   21 2
   4    1   22 2
   5    2    3 2
   6    3    4 1
   7    3    7 1
   8    4    5 1
   9    4   10 1
  10    5    6 1
  11    5   23 1
  12    5   24 1
  13    6   25 1
  14    6   26 1
  15    7    8 1
  16    7   11 1
  17    7   27 1
  18    8    9 1
  19    8   28 1
  20    8   29 1
  21    9   10 1
  22    9   30 1
  23    9   31 1
  24   10   32 1
  25   10   33 1
  26   11   12 ar
  27   11   16 ar
  28   12   13 ar
  29   12   34 1
  30   13   14 ar
  31   13   35 1
  32   14   15 ar
  33   14   17 1
  34   15   16 ar
  35   15   36 1
  36   16   37 1
  37   17   18 1
  38   18   19 1
  39   18   38 1
  40   18   39 1
  41   19   20 1
  42   19   40 1
  43   19   41 1
  44   20   42 1
  45   20   43 1
  46   20   44 1

#	End of record

