#	Name: ASD01914512
#	Creating user name:	WinNT
#	Creation time:	15. 06. 2019 20:03

#	Modifying user name:	WinNT
#	Modification time:	15. 06. 2019 20:03

#	Program:	/corina/corina34_cracker 3.40 0067  02.08.2006

@<TRIPOS>MOLECULE
ASD01914512
  61   65    0    0    0
SMALL
NO_CHARGES


@<TRIPOS>ATOM
   1 C1            -0.0168     1.3889     0.0097 C.ar    
   2 C2             0.0021    -0.0041     0.0020 C.ar    
   3 C3             1.2225    -0.6606    -0.0132 C.ar    
   4 C4             2.3820     0.0991    -0.0202 C.ar    
   5 C5             2.2883     1.4815    -0.0119 C.ar    
   6 N6             1.1168     2.0790     0.0026 N.ar    
   7 C7            -1.3134     2.1059     0.0197 C.2     
   8 O8            -2.3544     1.4791     0.0212 O.2     
   9 N9            -1.3382     3.4534     0.0271 N.am    
  10 C10           -2.6202     4.1624     0.0371 C.3     
  11 C11           -2.3683     5.6715     0.0441 C.3     
  12 C12           -3.7072     6.4120     0.0544 C.3     
  13 C13           -4.4966     6.0209     1.3053 C.3     
  14 C14           -4.7485     4.5118     1.2983 C.3     
  15 C15           -5.5497     4.1342     0.0508 C.3     
  16 C16           -4.7603     4.5253    -1.2001 C.3     
  17 C17           -3.4214     3.7849    -1.2105 C.3     
  18 C18           -4.5085     6.0344    -1.1931 C.3     
  19 C19           -3.4096     3.7713     1.2879 C.3     
  20 N20           -3.4661     7.8570     0.0611 N.am    
  21 C21           -4.5064     8.7138     0.0707 C.2     
  22 C22           -4.2636    10.1688     0.0775 C.ar    
  23 C23           -5.3416    11.0588     0.0874 C.ar    
  24 C24           -5.1118    12.4156     0.0937 C.ar    
  25 C25           -3.8074    12.9022     0.0901 C.ar    
  26 C26           -2.7317    12.0184     0.0797 C.ar    
  27 C27           -2.9550    10.6606     0.0797 C.ar    
  28 O28           -5.6451     8.2874     0.0738 O.2     
  29 N29           -3.5785    14.2737     0.0964 N.pl3   
  30 C30           -4.7094    15.2050     0.1068 C.3     
  31 C31           -2.2066    14.7874     0.0927 C.3     
  32 H32           -0.9212    -0.5643     0.0082 H       
  33 H33            1.2691    -1.7396    -0.0191 H       
  34 H34            3.3489    -0.3819    -0.0317 H       
  35 H35            3.1896     2.0764    -0.0174 H       
  36 H36           -0.5072     3.9538     0.0259 H       
  37 H37           -1.7975     5.9405     0.9328 H       
  38 H38           -1.8059     5.9502    -0.8471 H       
  39 H39           -3.9258     6.2898     2.1941 H       
  40 H40           -5.4505     6.5484     1.3127 H       
  41 H41           -5.3109     4.2331     2.1895 H       
  42 H42           -5.7292     3.0591     0.0458 H       
  43 H43           -6.5036     4.6617     0.0581 H       
  44 H44           -5.3311     4.2564    -2.0889 H       
  45 H45           -2.8590     4.0635    -2.1016 H       
  46 H46           -3.6009     2.7098    -1.2155 H       
  47 H47           -5.4623     6.5620    -1.1857 H       
  48 H48           -3.9460     6.3131    -2.0842 H       
  49 H49           -3.5890     2.6962     1.2830 H       
  50 H50           -2.8388     4.0403     2.1767 H       
  51 H51           -2.5576     8.1971     0.0587 H       
  52 H52           -6.3537    10.6819     0.0898 H       
  53 H53           -5.9442    13.1036     0.1010 H       
  54 H54           -1.7210    12.3990     0.0763 H       
  55 H55           -2.1201     9.9755     0.0769 H       
  56 H56           -4.9849    15.4304     1.1370 H       
  57 H57           -4.4265    16.1257    -0.4034 H       
  58 H58           -5.5581    14.7517    -0.4054 H       
  59 H59           -1.8712    14.9203    -0.9359 H       
  60 H60           -2.1759    15.7455     0.6116 H       
  61 H61           -1.5518    14.0785     0.5996 H       
@<TRIPOS>BOND
   1    1    2 ar
   2    1    6 ar
   3    1    7 1
   4    2    3 ar
   5    2   32 1
   6    3    4 ar
   7    3   33 1
   8    4    5 ar
   9    4   34 1
  10    5    6 ar
  11    5   35 1
  12    7    8 2
  13    7    9 am
  14    9   10 1
  15    9   36 1
  16   10   11 1
  17   10   17 1
  18   10   19 1
  19   11   12 1
  20   11   37 1
  21   11   38 1
  22   12   13 1
  23   12   18 1
  24   12   20 1
  25   13   14 1
  26   13   39 1
  27   13   40 1
  28   14   15 1
  29   14   19 1
  30   14   41 1
  31   15   16 1
  32   15   42 1
  33   15   43 1
  34   16   17 1
  35   16   18 1
  36   16   44 1
  37   17   45 1
  38   17   46 1
  39   18   47 1
  40   18   48 1
  41   19   49 1
  42   19   50 1
  43   20   21 am
  44   20   51 1
  45   21   22 1
  46   21   28 2
  47   22   23 ar
  48   22   27 ar
  49   23   24 ar
  50   23   52 1
  51   24   25 ar
  52   24   53 1
  53   25   26 ar
  54   25   29 1
  55   26   27 ar
  56   26   54 1
  57   27   55 1
  58   29   30 1
  59   29   31 1
  60   30   56 1
  61   30   57 1
  62   30   58 1
  63   31   59 1
  64   31   60 1
  65   31   61 1

#	End of record

