#	Name: ASD01150408
#	Creating user name:	WinNT
#	Creation time:	15. 06. 2019 19:04

#	Modifying user name:	WinNT
#	Modification time:	15. 06. 2019 19:04

#	Program:	/corina/corina34_cracker 3.40 0067  02.08.2006

@<TRIPOS>MOLECULE
ASD01150408
  37   39    0    0    0
SMALL
NO_CHARGES


@<TRIPOS>ATOM
   1 C1             0.3249     1.3760     0.8375 C.ar    
   2 C2             0.3426    -0.0048     0.8275 C.ar    
   3 C3             1.2081    -0.6807    -0.0131 C.ar    
   4 C4             2.0583     0.0233    -0.8462 C.ar    
   5 C5             2.0459     1.4042    -0.8408 C.ar    
   6 C6             1.1775     2.0861     0.0020 C.ar    
   7 N7             1.1621     3.4856     0.0097 N.am    
   8 C8            -0.0113     4.1368    -0.0780 C.2     
   9 N9            -0.0598     5.4821    -0.0733 N.am    
  10 C10            1.0795     6.1986     0.0209 C.2     
  11 C11            2.3607     5.4937     0.1171 C.2     
  12 N12            2.3679     4.1891     0.1143 N.2     
  13 O13            1.0437     7.4152     0.0254 O.2     
  14 C14           -1.3503     6.1686    -0.1709 C.3     
  15 O15           -1.0441     3.5008    -0.1633 O.2     
  16 C16           -1.9047     6.3949     1.2120 C.ar    
  17 C17           -1.6001     7.5565     1.8969 C.ar    
  18 C18           -2.1083     7.7647     3.1653 C.ar    
  19 C19           -2.9220     6.8103     3.7494 C.ar    
  20 C20           -3.2265     5.6480     3.0634 C.ar    
  21 C21           -2.7223     5.4435     1.7929 C.ar    
  22 C22            3.6511     6.2649     0.2235 C.3     
  23 Cl23          -3.5603     7.0708     5.3427 Cl      
  24 H24           -0.3543     1.9032     1.4911 H       
  25 H25           -0.3198    -0.5575     1.4772 H       
  26 H26            1.2202    -1.7606    -0.0188 H       
  27 H27            2.7329    -0.5075    -1.5016 H       
  28 H28            2.7106     1.9534    -1.4911 H       
  29 H29           -1.2145     7.1283    -0.6695 H       
  30 H30           -2.0452     5.5559    -0.7452 H       
  31 H31           -0.9646     8.3013     1.4410 H       
  32 H32           -1.8700     8.6720     3.7004 H       
  33 H33           -3.8617     4.9027     3.5189 H       
  34 H34           -2.9599     4.5363     1.2573 H       
  35 H35            3.8816     6.4443     1.2737 H       
  36 H36            4.4569     5.6894    -0.2322 H       
  37 H37            3.5481     7.2186    -0.2939 H       
@<TRIPOS>BOND
   1    1    2 ar
   2    1    6 ar
   3    1   24 1
   4    2    3 ar
   5    2   25 1
   6    3    4 ar
   7    3   26 1
   8    4    5 ar
   9    4   27 1
  10    5    6 ar
  11    5   28 1
  12    6    7 1
  13    7    8 am
  14    7   12 1
  15    8    9 am
  16    8   15 2
  17    9   10 am
  18    9   14 1
  19   10   11 1
  20   10   13 2
  21   11   12 2
  22   11   22 1
  23   14   16 1
  24   14   29 1
  25   14   30 1
  26   16   17 ar
  27   16   21 ar
  28   17   18 ar
  29   17   31 1
  30   18   19 ar
  31   18   32 1
  32   19   20 ar
  33   19   23 1
  34   20   21 ar
  35   20   33 1
  36   21   34 1
  37   22   35 1
  38   22   36 1
  39   22   37 1

#	End of record

