#	Name: ASD03491013
#	Creating user name:	WinNT
#	Creation time:	15. 06. 2019 20:42

#	Modifying user name:	WinNT
#	Modification time:	15. 06. 2019 20:42

#	Program:	/corina/corina34_cracker 3.40 0067  02.08.2006

@<TRIPOS>MOLECULE
ASD03491013
  69   72    0    0    0
SMALL
NO_CHARGES


@<TRIPOS>ATOM
   1 C1             0.4088     1.1301    -1.1655 C.ar    
   2 C2             0.2690    -0.2173    -0.8630 C.ar    
   3 C3             1.3879    -0.9715    -0.5230 C.ar    
   4 C4             2.6419    -0.3702    -0.4882 C.ar    
   5 C5             2.7713     0.9793    -0.7928 C.ar    
   6 C6             1.6573     1.7234    -1.1297 C.ar    
   7 C7             1.8032     3.1867    -1.4591 C.3     
   8 N8             3.7708    -1.1230    -0.1467 N.am    
   9 C9             4.9632    -0.8422    -0.7087 C.2     
  10 O10            5.0416     0.0044    -1.5757 O.2     
  11 C11            7.4976    -1.1725    -0.7740 C.ar    
  12 C12            8.6889    -1.9674    -0.4636 C.ar    
  13 C13            9.9402    -1.5553    -0.9767 C.ar    
  14 C14           10.0141    -0.3894    -1.7745 C.ar    
  15 C15            8.8717     0.3449    -2.0521 C.ar    
  16 C16            7.6362    -0.0299    -1.5688 C.ar    
  17 C17            8.6110    -3.1182     0.3259 C.ar    
  18 C18            9.7438    -3.8318     0.5930 C.ar    
  19 C19           10.9760    -3.4285     0.0894 C.ar    
  20 C20           11.0848    -2.3106    -0.6843 C.ar    
  21 C21            3.2745     3.5907    -1.3461 C.3     
  22 C22            1.3130     3.4395    -2.8862 C.3     
  23 C23            0.9700     4.0155    -0.4794 C.3     
  24 C24            6.1850    -1.5704    -0.2663 C.2     
  25 O25            6.0911    -2.4957     0.5169 O.2     
  26 N26           11.2331     0.0204    -2.2798 N.pl3   
  27 C27           11.2962     0.6517    -3.5195 C.ar    
  28 C28           12.3475     1.5138    -3.8308 C.ar    
  29 C29           12.3734     2.1189    -5.0698 C.ar    
  30 N30           11.4207     1.8907    -5.9543 N.ar    
  31 C31           10.4097     1.0820    -5.6979 C.ar    
  32 C32           10.3129     0.4338    -4.4844 C.ar    
  33 N33           -0.9956    -0.8164    -0.8993 N.am    
  34 S34           -2.1153    -0.3199    -2.0137 S.o2    
  35 O35           -3.2105    -1.2062    -1.8289 O.2     
  36 O36           -2.2528     1.0742    -1.7752 O.2     
  37 C37           -1.3203    -0.6160    -3.6171 C.3     
  38 O38            1.2558    -2.2927    -0.2252 O.3     
  39 C39            1.3673    -3.2165    -1.3097 C.3     
  40 H40           -0.4585     1.7151    -1.4338 H       
  41 H41            3.7443     1.4472    -0.7658 H       
  42 H42            3.6953    -1.8469     0.4945 H       
  43 H43            8.9514     1.2322    -2.6627 H       
  44 H44            6.7668     0.5658    -1.8048 H       
  45 H45            7.6598    -3.4410     0.7228 H       
  46 H46            9.6825    -4.7206     1.2035 H       
  47 H47           11.8588    -4.0086     0.3141 H       
  48 H48           12.0476    -2.0082    -1.0688 H       
  49 H49            3.8681     3.0002    -2.0441 H       
  50 H50            3.3800     4.6491    -1.5844 H       
  51 H51            3.6237     3.4106    -0.3294 H       
  52 H52            0.2648     3.1517    -2.9667 H       
  53 H53            1.4185     4.4979    -3.1245 H       
  54 H54            1.9066     2.8490    -3.5842 H       
  55 H55            1.3192     3.8354     0.5373 H       
  56 H56            1.0755     5.0739    -0.7177 H       
  57 H57           -0.0782     3.7277    -0.5599 H       
  58 H58           12.0448    -0.1317    -1.7711 H       
  59 H59           13.1301     1.7051    -3.1115 H       
  60 H60           13.1834     2.7882    -5.3194 H       
  61 H61            9.6505     0.9228    -6.4494 H       
  62 H62            9.4829    -0.2267    -4.2810 H       
  63 H63           -1.2160    -1.5224    -0.2717 H       
  64 H64           -1.0887    -1.6764    -3.7175 H       
  65 H65           -1.9947    -0.3139    -4.4184 H       
  66 H66           -0.3997    -0.0357    -3.6789 H       
  67 H67            2.3494    -3.1173    -1.7720 H       
  68 H68            1.2429    -4.2327    -0.9356 H       
  69 H69            0.5948    -3.0042    -2.0487 H       
@<TRIPOS>BOND
   1    1    2 ar
   2    1    6 ar
   3    1   40 1
   4    2    3 ar
   5    2   33 1
   6    3    4 ar
   7    3   38 1
   8    4    5 ar
   9    4    8 1
  10    5    6 ar
  11    5   41 1
  12    6    7 1
  13    7   21 1
  14    7   22 1
  15    7   23 1
  16    8    9 am
  17    8   42 1
  18    9   10 2
  19    9   24 1
  20   11   12 ar
  21   11   16 ar
  22   11   24 1
  23   12   13 ar
  24   12   17 ar
  25   13   14 ar
  26   13   20 ar
  27   14   15 ar
  28   14   26 1
  29   15   16 ar
  30   15   43 1
  31   16   44 1
  32   17   18 ar
  33   17   45 1
  34   18   19 ar
  35   18   46 1
  36   19   20 ar
  37   19   47 1
  38   20   48 1
  39   21   49 1
  40   21   50 1
  41   21   51 1
  42   22   52 1
  43   22   53 1
  44   22   54 1
  45   23   55 1
  46   23   56 1
  47   23   57 1
  48   24   25 2
  49   26   27 1
  50   26   58 1
  51   27   28 ar
  52   27   32 ar
  53   28   29 ar
  54   28   59 1
  55   29   30 ar
  56   29   60 1
  57   30   31 ar
  58   31   32 ar
  59   31   61 1
  60   32   62 1
  61   33   34 am
  62   33   63 1
  63   34   35 2
  64   34   36 2
  65   34   37 1
  66   37   64 1
  67   37   65 1
  68   37   66 1
  69   38   39 1
  70   39   67 1
  71   39   68 1
  72   39   69 1

#	End of record

