#	Name: ASD02039011
#	Creating user name:	WinNT
#	Creation time:	15. 06. 2019 20:17

#	Modifying user name:	WinNT
#	Modification time:	15. 06. 2019 20:17

#	Program:	/corina/corina34_cracker 3.40 0067  02.08.2006

@<TRIPOS>MOLECULE
ASD02039011
  47   49    0    0    0
SMALL
NO_CHARGES


@<TRIPOS>ATOM
   1 N1             0.1901     1.3281     0.1387 N.2     
   2 N2             0.2396     0.0438     0.1944 N.2     
   3 C3             1.3877     1.7978    -0.1125 C.2     
   4 O4             2.2166     0.7426    -0.2164 O.3     
   5 C5             1.4597    -0.3543    -0.0171 C.2     
   6 N6             1.7349     3.1293    -0.2460 N.pl3   
   7 C7             1.3474     5.5245    -0.2934 C.ar    
   8 C8             1.9398    -1.7826    -0.0351 C.3     
   9 O9             1.8411    -2.3016    -1.3628 O.3     
  10 C10            2.2374    -3.5883    -1.5537 C.ar    
  11 C11            2.1680    -4.1547    -2.8181 C.ar    
  12 C12            2.7164    -4.3320    -0.4852 C.ar    
  13 C13            3.1195    -5.6386    -0.6785 C.ar    
  14 C14            3.0453    -6.2078    -1.9426 C.ar    
  15 C15            2.5708    -5.4612    -3.0127 C.ar    
  16 C16            1.4142     6.0857    -1.5546 C.ar    
  17 C17            1.8564     6.2073     0.7959 C.ar    
  18 C18            2.4326     7.4518     0.6246 C.ar    
  19 C19            2.5003     8.0150    -0.6372 C.ar    
  20 C20            1.9906     7.3313    -1.7278 C.ar    
  21 Cl21           3.2235     9.5784    -0.8527 Cl      
  22 N22            3.4547    -7.5336    -2.1396 N.am    
  23 C23            3.2401    -8.4548    -1.1795 C.2     
  24 O24            2.7693    -8.1200    -0.1105 O.2     
  25 O25            3.5476    -9.7463    -1.4048 O.3     
  26 Cl26           2.0753     8.0364    -3.3119 Cl      
  27 C27            0.7138     4.1703    -0.1043 C.3     
  28 C28            3.2898   -10.6832    -0.3259 C.3     
  29 C29            3.6994   -12.0908    -0.7640 C.3     
  30 H30            2.6545     3.3744    -0.4334 H       
  31 H31            2.9782    -1.8211     0.2939 H       
  32 H32            1.3238    -2.3815     0.6358 H       
  33 H33            1.7985    -3.5740    -3.6503 H       
  34 H34            2.7744    -3.8889     0.4980 H       
  35 H35            3.4927    -6.2174     0.1534 H       
  36 H36            2.5124    -5.9036    -3.9962 H       
  37 H37            1.0167     5.5516    -2.4050 H       
  38 H38            1.8034     5.7681     1.7811 H       
  39 H39            2.8297     7.9848     1.4759 H       
  40 H40            3.8924    -7.7883    -2.9669 H       
  41 H41           -0.0614     4.0236    -0.8564 H       
  42 H42            0.2710     4.1120     0.8900 H       
  43 H43            3.8668   -10.3937     0.5523 H       
  44 H44            2.2274   -10.6733    -0.0822 H       
  45 H45            3.1223   -12.3803    -1.6423 H       
  46 H46            4.7617   -12.1007    -1.0078 H       
  47 H47            3.5058   -12.7941     0.0459 H       
@<TRIPOS>BOND
   1    1    2 1
   2    1    3 2
   3    2    5 2
   4    3    4 1
   5    3    6 1
   6    4    5 1
   7    5    8 1
   8    6   27 1
   9    6   30 1
  10    7   16 ar
  11    7   17 ar
  12    7   27 1
  13    8    9 1
  14    8   31 1
  15    8   32 1
  16    9   10 1
  17   10   11 ar
  18   10   12 ar
  19   11   15 ar
  20   11   33 1
  21   12   13 ar
  22   12   34 1
  23   13   14 ar
  24   13   35 1
  25   14   15 ar
  26   14   22 1
  27   15   36 1
  28   16   20 ar
  29   16   37 1
  30   17   18 ar
  31   17   38 1
  32   18   19 ar
  33   18   39 1
  34   19   20 ar
  35   19   21 1
  36   20   26 1
  37   22   23 am
  38   22   40 1
  39   23   24 2
  40   23   25 1
  41   25   28 1
  42   27   41 1
  43   27   42 1
  44   28   29 1
  45   28   43 1
  46   28   44 1
  47   29   45 1
  48   29   46 1
  49   29   47 1

#	End of record

