#	Name: ASD00780004
#	Creating user name:	WinNT
#	Creation time:	15. 06. 2019 18:37

#	Modifying user name:	WinNT
#	Modification time:	15. 06. 2019 18:37

#	Program:	/corina/corina34_cracker 3.40 0067  02.08.2006

@<TRIPOS>MOLECULE
ASD00780004
  44   46    0    0    0
SMALL
NO_CHARGES


@<TRIPOS>ATOM
   1 S1            -0.0217     1.7512     0.0117 S.3     
   2 O2            -0.8468    -2.2529    -0.1801 O.3     
   3 O3             4.2895     0.2993    -1.0806 O.2     
   4 O4             0.5282     4.2487     0.0209 O.2     
   5 N5             2.3946     3.0440    -0.0035 N.am    
   6 N6             4.3612     0.2809     1.1404 N.am    
   7 N7             3.8643     5.6201    -0.0012 N.pl3   
   8 N8             4.1723     6.8670     0.0037 N.2     
   9 C9             0.3850    -2.5950    -0.7897 C.3     
  10 C10           -1.2170    -0.9006     0.0186 C.3     
  11 C11            1.5581    -1.9475    -0.0401 C.3     
  12 C12            1.2643    -0.4562    -0.0198 C.2     
  13 C13            0.0021    -0.0041     0.0020 C.2     
  14 C14            0.5653    -4.1228    -0.7172 C.3     
  15 C15            0.4252    -2.1739    -2.2595 C.3     
  16 C16            2.2411     0.6089    -0.0188 C.2     
  17 C17           -2.2105    -0.4406    -1.0560 C.3     
  18 C18           -1.9063    -0.7653     1.3910 C.3     
  19 C19            1.6779     1.8581    -0.0040 C.2     
  20 C20            3.6913     0.3872    -0.0243 C.2     
  21 C21            1.7442     4.2244     0.0095 C.2     
  22 C22            2.5051     5.4834     0.0100 C.2     
  23 C23            1.9873     6.7673     0.0225 C.2     
  24 C24            3.0979     7.6141     0.0178 C.2     
  25 H25            1.6098    -2.3318     0.9754 H       
  26 H26            2.4854    -2.1469    -0.5756 H       
  27 H27           -0.2556    -4.6108    -1.2427 H       
  28 H28            0.2951    -1.0941    -2.3317 H       
  29 H29            1.3861    -2.4538    -2.6914 H       
  30 H30           -0.3768    -2.6737    -2.8027 H       
  31 H31            1.5108    -4.3996    -1.1836 H       
  32 H32            0.5682    -4.4392     0.3258 H       
  33 H33           -1.2172    -1.0768     2.1759 H       
  34 H34           -2.1947     0.2735     1.5519 H       
  35 H35           -2.7944    -1.3969     1.4154 H       
  36 H36           -3.1068    -1.0592    -1.0108 H       
  37 H37           -2.4788     0.6012    -0.8807 H       
  38 H38           -1.7518    -0.5370    -2.0401 H       
  39 H39            3.3644     3.0247    -0.0126 H       
  40 H40            5.3201     0.1343     1.1367 H       
  41 H41            3.8845     0.3509     1.9822 H       
  42 H42            0.9459     7.0533     0.0332 H       
  43 H43            4.4998     4.8874    -0.0151 H       
  44 H44            3.0743     8.6938     0.0246 H       
@<TRIPOS>BOND
   1    1   13 1
   2    1   19 1
   3    2    9 1
   4    2   10 1
   5    3   20 2
   6    4   21 2
   7    5   19 1
   8    5   21 am
   9    5   39 1
  10    6   20 am
  11    6   40 1
  12    6   41 1
  13    7    8 1
  14    7   22 1
  15    7   43 1
  16    8   24 2
  17    9   11 1
  18    9   14 1
  19    9   15 1
  20   10   13 1
  21   10   17 1
  22   10   18 1
  23   11   12 1
  24   11   25 1
  25   11   26 1
  26   12   13 2
  27   12   16 1
  28   14   27 1
  29   14   31 1
  30   14   32 1
  31   15   28 1
  32   15   29 1
  33   15   30 1
  34   16   19 2
  35   16   20 1
  36   17   36 1
  37   17   37 1
  38   17   38 1
  39   18   33 1
  40   18   34 1
  41   18   35 1
  42   21   22 1
  43   22   23 2
  44   23   24 1
  45   23   42 1
  46   24   44 1

#	End of record

