#	Name: ASD07300640
#	Creating user name:	WinNT
#	Creation time:	15. 06. 2019 21:10

#	Modifying user name:	WinNT
#	Modification time:	15. 06. 2019 21:10

#	Program:	/corina/corina34_cracker 3.40 0067  02.08.2006

@<TRIPOS>MOLECULE
ASD07300640
  17   18    0    0    0
SMALL
NO_CHARGES


@<TRIPOS>ATOM
   1 C1            -0.0171     1.4065     0.0098 C.2     
   2 C2             0.0021    -0.0041     0.0020 C.2     
   3 N3             1.1785     2.0841     0.0020 N.pl3   
   4 N4             1.1511    -0.6382    -0.0124 N.2     
   5 C5             2.3110     0.0245    -0.0199 C.2     
   6 C6             2.3474     1.3731    -0.0126 C.2     
   7 N7            -0.9927     2.2992     0.0291 N.2     
   8 C8            -0.4649     3.5240     0.0277 C.2     
   9 C9             0.8859     3.4125     0.0119 C.2     
  10 C10           -1.2405     4.8159     0.0457 C.3     
  11 Cl11          -1.4868    -0.8967     0.0120 Cl      
  12 Br12           2.1302     4.8364     0.0083 Br      
  13 H13            3.2377    -0.5302    -0.0313 H       
  14 H14            3.2959     1.8896    -0.0192 H       
  15 H15           -1.4120     5.1223     1.0776 H       
  16 H16           -0.6723     5.5881    -0.4729 H       
  17 H17           -2.1982     4.6718    -0.4544 H       
@<TRIPOS>BOND
   1    1    2 1
   2    1    3 1
   3    1    7 2
   4    2    4 2
   5    2   11 1
   6    3    6 1
   7    3    9 1
   8    4    5 1
   9    5    6 2
  10    5   13 1
  11    6   14 1
  12    7    8 1
  13    8    9 2
  14    8   10 1
  15    9   12 1
  16   10   15 1
  17   10   16 1
  18   10   17 1

#	End of record

