#	Name: ASD01812622
#	Creating user name:	WinNT
#	Creation time:	15. 06. 2019 19:28

#	Modifying user name:	WinNT
#	Modification time:	15. 06. 2019 19:28

#	Program:	/corina/corina34_cracker 3.40 0067  02.08.2006

@<TRIPOS>MOLECULE
ASD01812622
  53   57    0    0    0
SMALL
NO_CHARGES


@<TRIPOS>ATOM
   1 O1            -0.0518     1.4153    -0.0029 O.3     
   2 C2            -0.0158     0.0594    -0.0043 C.ar    
   3 C3             1.2014    -0.6055    -0.0165 C.ar    
   4 C4             1.2402    -1.9859    -0.0179 C.ar    
   5 C5             0.0632    -2.7186    -0.0067 C.ar    
   6 C6            -1.1505    -2.0738     0.0059 C.ar    
   7 C7            -1.2087    -0.6773     0.0125 C.ar    
   8 C8            -2.5786    -2.5592     0.0191 C.3     
   9 N9            -3.4196    -1.3568     0.0280 N.am    
  10 C10           -2.6242    -0.2732     0.0324 C.2     
  11 C11           -4.8845    -1.3401     0.0414 C.3     
  12 O12           -3.0178     0.8772     0.0386 O.2     
  13 C13            1.1293     2.0842    -0.0137 C.ar    
  14 C14            1.7563     2.4251     1.1920 C.ar    
  15 C15            1.1547     2.0697     2.4419 C.1     
  16 C16            1.7248     2.4290    -1.2200 C.ar    
  17 C17            2.9281     3.1099    -1.2284 C.ar    
  18 C18            3.5474     3.4521    -0.0375 C.ar    
  19 C19            2.9723     3.1133     1.1681 C.ar    
  20 N20            0.6774     1.7877     3.4335 N.1     
  21 F21            1.1282     2.0984    -2.3862 F       
  22 C22           -5.3737    -1.3358     1.4668 C.ar    
  23 C23           -5.5841    -0.1355     2.1204 C.ar    
  24 C24           -6.0324    -0.1281     3.4267 C.ar    
  25 C25           -6.2725    -1.3278     4.0836 C.ar    
  26 C26           -6.0607    -2.5316     3.4243 C.ar    
  27 C27           -5.6169    -2.5320     2.1164 C.ar    
  28 N28           -6.7263    -1.3238     5.4072 N.am    
  29 C29           -6.8648    -0.1174     6.2315 C.3     
  30 C30           -6.9617    -0.6225     7.6882 C.3     
  31 C31           -7.5175    -2.0517     7.4901 C.3     
  32 C32           -7.0968    -2.4237     6.0853 C.2     
  33 O33           -7.0921    -3.5507     5.6370 O.2     
  34 H34            2.1224    -0.0415    -0.0253 H       
  35 H35            2.1915    -2.4970    -0.0282 H       
  36 H36            0.1002    -3.7980    -0.0082 H       
  37 H37           -2.7812    -3.1517    -0.8731 H       
  38 H38           -2.7643    -3.1531     0.9141 H       
  39 H39           -5.2423    -0.4455    -0.4682 H       
  40 H40           -5.2627    -2.2254    -0.4698 H       
  41 H41            3.3879     3.3762    -2.1687 H       
  42 H42            4.4874     3.9837    -0.0540 H       
  43 H43            3.4611     3.3792     2.0937 H       
  44 H44           -5.3972     0.7972     1.6090 H       
  45 H45           -6.1958     0.8097     3.9369 H       
  46 H46           -6.2465    -3.4662     3.9325 H       
  47 H47           -5.4559    -3.4678     1.6017 H       
  48 H48           -5.9914     0.5236     6.1118 H       
  49 H49           -7.7709     0.4237     5.9589 H       
  50 H50           -5.9787    -0.6479     8.1584 H       
  51 H51           -7.6539    -0.0116     8.2677 H       
  52 H52           -7.0788    -2.7358     8.2165 H       
  53 H53           -8.6045    -2.0530     7.5716 H       
@<TRIPOS>BOND
   1    1    2 1
   2    1   13 1
   3    2    3 ar
   4    2    7 ar
   5    3    4 ar
   6    3   34 1
   7    4    5 ar
   8    4   35 1
   9    5    6 ar
  10    5   36 1
  11    6    8 1
  12    6    7 ar
  13    7   10 1
  14    8    9 1
  15    8   37 1
  16    8   38 1
  17    9   10 am
  18    9   11 1
  19   10   12 2
  20   11   22 1
  21   11   39 1
  22   11   40 1
  23   13   16 ar
  24   13   14 ar
  25   14   15 1
  26   14   19 ar
  27   15   20 3
  28   16   17 ar
  29   16   21 1
  30   17   18 ar
  31   17   41 1
  32   18   19 ar
  33   18   42 1
  34   19   43 1
  35   22   23 ar
  36   22   27 ar
  37   23   24 ar
  38   23   44 1
  39   24   25 ar
  40   24   45 1
  41   25   26 ar
  42   25   28 1
  43   26   27 ar
  44   26   46 1
  45   27   47 1
  46   28   29 1
  47   28   32 am
  48   29   30 1
  49   29   48 1
  50   29   49 1
  51   30   31 1
  52   30   50 1
  53   30   51 1
  54   31   32 1
  55   31   52 1
  56   31   53 1
  57   32   33 2

#	End of record

