#	Name: ASD04590188
#	Creating user name:	WinNT
#	Creation time:	15. 06. 2019 20:50

#	Modifying user name:	WinNT
#	Modification time:	15. 06. 2019 20:50

#	Program:	/corina/corina34_cracker 3.40 0067  02.08.2006

@<TRIPOS>MOLECULE
ASD04590188
  46   48    0    0    0
SMALL
NO_CHARGES


@<TRIPOS>ATOM
   1 N1            -0.0153     1.2784    -0.0164 N.pl3   
   2 N2             0.0026    -0.0059    -0.0292 N.2     
   3 C3             1.2464    -0.4452    -0.0403 C.2     
   4 C4             2.0906     0.6950    -0.0336 C.2     
   5 C5             1.2525     1.7651    -0.0185 C.2     
   6 C6             1.6780    -1.8556    -0.0565 C.2     
   7 N7             0.7590    -2.8415    -0.0618 N.am    
   8 N8             3.4943     0.7141    -0.0411 N.am    
   9 O9             2.8628    -2.1288    -0.0652 O.2     
  10 C10            4.1523     1.8902    -0.0331 C.2     
  11 N11            5.5000     1.9085    -0.0402 N.am    
  12 O12            3.5302     2.9349    -0.0194 O.2     
  13 C13            1.1877    -4.2423    -0.0779 C.3     
  14 C14            0.0837    -5.1065    -0.6907 C.3     
  15 C15            0.5314    -6.5694    -0.7075 C.3     
  16 C16            0.8081    -7.0346     0.7235 C.3     
  17 C17            1.9120    -6.1705     1.3363 C.3     
  18 C18            1.4644    -4.7075     1.3531 C.3     
  19 O19           -0.3827    -6.9098     1.5036 O.3     
  20 C20            6.1826     3.1255    -0.1458 C.ar    
  21 C21            7.3872     3.3078     0.5208 C.ar    
  22 C22            8.0585     4.5101     0.4146 C.ar    
  23 C23            5.6598     4.1515    -0.9220 C.ar    
  24 C24            6.3360     5.3514    -1.0242 C.ar    
  25 C25            7.5324     5.5318    -0.3546 C.ar    
  26 H26           -0.8185     1.8221    -0.0104 H       
  27 H27            1.5404     2.8060    -0.0098 H       
  28 H28           -0.1861    -2.6236    -0.0548 H       
  29 H29            3.9906    -0.1193    -0.0520 H       
  30 H30            5.9967     1.0781     0.0279 H       
  31 H31            2.0960    -4.3375    -0.6729 H       
  32 H32           -0.8246    -5.0113    -0.0957 H       
  33 H33           -0.1134    -4.7750    -1.7102 H       
  34 H34           -0.2551    -7.1850    -1.1441 H       
  35 H35            1.4397    -6.6646    -1.3025 H       
  36 H36            1.1270    -8.0768     0.7115 H       
  37 H37            2.1091    -6.5019     2.3558 H       
  38 H38            2.8203    -6.2657     0.7413 H       
  39 H39            2.2508    -4.0919     1.7897 H       
  40 H40            0.5560    -4.6124     1.9481 H       
  41 H41           -0.2808    -7.1877     2.4242 H       
  42 H42            7.7984     2.5103     1.1219 H       
  43 H43            8.9951     4.6526     0.9330 H       
  44 H44            4.7257     4.0111    -1.4455 H       
  45 H45            5.9301     6.1496    -1.6279 H       
  46 H46            8.0592     6.4710    -0.4360 H       
@<TRIPOS>BOND
   1    1    2 1
   2    1    5 1
   3    1   26 1
   4    2    3 2
   5    3    4 1
   6    3    6 1
   7    4    5 2
   8    4    8 1
   9    5   27 1
  10    6    7 am
  11    6    9 2
  12    7   13 1
  13    7   28 1
  14    8   10 am
  15    8   29 1
  16   10   11 am
  17   10   12 2
  18   11   20 1
  19   11   30 1
  20   13   14 1
  21   13   18 1
  22   13   31 1
  23   14   15 1
  24   14   32 1
  25   14   33 1
  26   15   16 1
  27   15   34 1
  28   15   35 1
  29   16   17 1
  30   16   19 1
  31   16   36 1
  32   17   18 1
  33   17   37 1
  34   17   38 1
  35   18   39 1
  36   18   40 1
  37   19   41 1
  38   20   21 ar
  39   20   23 ar
  40   21   22 ar
  41   21   42 1
  42   22   25 ar
  43   22   43 1
  44   23   24 ar
  45   23   44 1
  46   24   25 ar
  47   24   45 1
  48   25   46 1

#	End of record

