#	Name: ASD03430068
#	Creating user name:	WinNT
#	Creation time:	15. 06. 2019 20:40

#	Modifying user name:	WinNT
#	Modification time:	15. 06. 2019 20:40

#	Program:	/corina/corina34_cracker 3.40 0067  02.08.2006

@<TRIPOS>MOLECULE
ASD03430068
  45   50    0    0    0
SMALL
NO_CHARGES


@<TRIPOS>ATOM
   1 C1             0.4005     1.1570    -0.5347 C.ar    
   2 C2             0.3759    -0.2237    -0.4114 C.ar    
   3 C3             1.5491    -0.9254    -0.2308 C.ar    
   4 C4             2.7692    -0.2598    -0.1598 C.ar    
   5 C5             2.7906     1.1253    -0.2882 C.ar    
   6 C6             1.6142     1.8318    -0.4736 C.ar    
   7 O7             3.7966    -1.1322     0.0487 O.3     
   8 C8             1.8522    -2.3930    -0.0892 C.3     
   9 C9             3.3703    -2.4619    -0.3050 C.3     
  10 C10            0.5656    -3.9714     0.9924 C.ar    
  11 C11            1.4518    -2.9315     1.2519 C.ar    
  12 C12            1.1079    -3.2277    -1.0913 C.2     
  13 N13            0.3854    -4.1202    -0.3853 N.am    
  14 O14            1.1488    -3.1200    -2.2987 O.2     
  15 C15            1.7838    -2.5978     2.5572 C.ar    
  16 C16            1.2251    -3.3101     3.6184 C.ar    
  17 C17            0.3455    -4.3425     3.3615 C.ar    
  18 C18            0.0157    -4.6741     2.0627 C.ar    
  19 C19           -0.4872    -5.1287    -0.9917 C.3     
  20 O20           -0.7665     1.8336    -0.7201 O.3     
  21 C21           -0.7392     3.2436    -0.4729 C.3     
  22 C22            0.5089     3.8256    -1.1502 C.3     
  23 O23            1.6617     3.1876    -0.5908 O.3     
  24 C24            2.7310    -1.4866     2.8234 C.2     
  25 C25            4.0014    -1.5620     3.5533 C.2     
  26 C26            4.5102    -0.3184     3.5418 C.2     
  27 O27            3.6705     0.4907     2.8783 O.3     
  28 C28            2.6037    -0.1911     2.4368 C.2     
  29 H29           -0.5653    -0.7514    -0.4565 H       
  30 H30            3.7316     1.6535    -0.2422 H       
  31 H31            3.6036    -2.6787    -1.3475 H       
  32 H32            3.8220    -3.2018     0.3558 H       
  33 H33            1.4798    -3.0552     4.6365 H       
  34 H34           -0.0874    -4.8949     4.1824 H       
  35 H35           -0.6737    -5.4839     1.8747 H       
  36 H36           -1.4897    -4.7175    -1.1106 H       
  37 H37           -0.0923    -5.4114    -1.9675 H       
  38 H38           -0.5289    -6.0074    -0.3481 H       
  39 H39           -1.6335     3.7072    -0.8893 H       
  40 H40           -0.6947     3.4278     0.6005 H       
  41 H41            0.4680     3.6346    -2.2226 H       
  42 H42            0.5585     4.8993    -0.9691 H       
  43 H43            4.4386    -2.4388     4.0077 H       
  44 H44            5.4441    -0.0185     3.9939 H       
  45 H45            1.7790     0.2218     1.8748 H       
@<TRIPOS>BOND
   1    1    2 ar
   2    1    6 ar
   3    1   20 1
   4    2    3 ar
   5    2   29 1
   6    3    4 ar
   7    3    8 1
   8    4    5 ar
   9    4    7 1
  10    5    6 ar
  11    5   30 1
  12    6   23 1
  13    7    9 1
  14    8    9 1
  15    8   11 1
  16    8   12 1
  17    9   31 1
  18    9   32 1
  19   10   11 ar
  20   10   13 1
  21   10   18 ar
  22   11   15 ar
  23   12   13 am
  24   12   14 2
  25   13   19 1
  26   15   16 ar
  27   15   24 1
  28   16   17 ar
  29   16   33 1
  30   17   18 ar
  31   17   34 1
  32   18   35 1
  33   19   36 1
  34   19   37 1
  35   19   38 1
  36   20   21 1
  37   21   22 1
  38   21   39 1
  39   21   40 1
  40   22   23 1
  41   22   41 1
  42   22   42 1
  43   24   25 1
  44   24   28 2
  45   25   26 2
  46   25   43 1
  47   26   27 1
  48   26   44 1
  49   27   28 1
  50   28   45 1

#	End of record

