#	Name: ASD02032008
#	Creating user name:	WinNT
#	Creation time:	15. 06. 2019 20:16

#	Modifying user name:	WinNT
#	Modification time:	15. 06. 2019 20:16

#	Program:	/corina/corina34_cracker 3.40 0067  02.08.2006

@<TRIPOS>MOLECULE
ASD02032008
  27   29    0    0    0
SMALL
NO_CHARGES


@<TRIPOS>ATOM
   1 C1            -0.0164     1.3557     0.0095 C.ar    
   2 C2             0.0021    -0.0041     0.0020 C.ar    
   3 C3             1.2180    -0.7054    -0.0129 C.ar    
   4 C4             2.4250    -0.0147    -0.0206 C.ar    
   5 C5             2.4179     1.3783    -0.0136 C.ar    
   6 C6             1.1883     2.0772     0.0019 C.ar    
   7 C7             3.6665     2.1480    -0.0208 C.ar    
   8 C8             3.5944     3.5590    -0.0126 C.ar    
   9 C9             2.3328     4.1990     0.0028 C.ar    
  10 C10            1.1841     3.4902     0.0090 C.ar    
  11 C11            4.9119     1.5181    -0.0351 C.ar    
  12 C12            6.0513     2.2717    -0.0411 C.ar    
  13 C13            5.9848     3.6599    -0.0326 C.ar    
  14 C14            4.7822     4.3038    -0.0195 C.ar    
  15 I15            2.2457     6.2921     0.0155 I       
  16 C16            1.2154    -2.1814    -0.0198 C.2     
  17 O17            2.2665    -2.7906    -0.0327 O.2     
  18 O18            0.0475    -2.8531    -0.0118 O.3     
  19 H19           -0.9595     1.8818     0.0168 H       
  20 H20           -0.9294    -0.5506     0.0080 H       
  21 H21            3.3606    -0.5541    -0.0317 H       
  22 H22            0.2402     4.0151     0.0209 H       
  23 H23            4.9746     0.4400    -0.0411 H       
  24 H24            7.0145     1.7833    -0.0521 H       
  25 H25            6.8978     4.2369    -0.0372 H       
  26 H26            4.7452     5.3831    -0.0130 H       
  27 H27            0.0964    -3.8188    -0.0168 H       
@<TRIPOS>BOND
   1    1    2 ar
   2    1    6 ar
   3    1   19 1
   4    2    3 ar
   5    2   20 1
   6    3    4 ar
   7    3   16 1
   8    4    5 ar
   9    4   21 1
  10    5    6 ar
  11    5    7 ar
  12    6   10 ar
  13    7    8 ar
  14    7   11 ar
  15    8    9 ar
  16    8   14 ar
  17    9   10 ar
  18    9   15 1
  19   10   22 1
  20   11   12 ar
  21   11   23 1
  22   12   13 ar
  23   12   24 1
  24   13   14 ar
  25   13   25 1
  26   14   26 1
  27   16   17 2
  28   16   18 1
  29   18   27 1

#	End of record

