#	Name: ASD01680112
#	Creating user name:	WinNT
#	Creation time:	15. 06. 2019 19:22

#	Modifying user name:	WinNT
#	Modification time:	15. 06. 2019 19:22

#	Program:	/corina/corina34_cracker 3.40 0067  02.08.2006

@<TRIPOS>MOLECULE
ASD01680112
  93   97    0    0    0
SMALL
NO_CHARGES


@<TRIPOS>ATOM
   1 C1            -0.5064     0.7286    -3.0798 C.2     
   2 C2            -0.5769    -0.7290    -2.7036 C.3     
   3 C3            -1.3184    -1.5023    -3.7959 C.3     
   4 O4             0.5671     1.2661    -3.2161 O.2     
   5 O5            -1.6362     1.4283    -3.2688 O.3     
   6 N6             0.7800    -1.2631    -2.5627 N.am    
   7 S7             1.4966    -1.3200    -1.0708 S.o2    
   8 O8             2.7742    -1.9122    -1.2617 O.2     
   9 O9             1.3140    -0.0366    -0.4888 O.2     
  10 C10            0.5667    -2.4488    -0.0882 C.ar    
  11 C11           -0.3819    -1.9745     0.7984 C.ar    
  12 C12           -1.1114    -2.8601     1.5694 C.ar    
  13 C13           -0.8927    -4.2201     1.4533 C.ar    
  14 C14            0.0552    -4.6945     0.5660 C.ar    
  15 C15            0.7817    -3.8091    -0.2080 C.ar    
  16 C16            1.8115    -4.3265    -1.1791 C.3     
  17 C17           -1.6873    -5.1855     2.2945 C.3     
  18 C18           -0.6203    -0.4918     0.9249 C.3     
  19 N19           -1.2833    -2.9345    -3.4898 N.am    
  20 C20           -1.8770    -3.8156    -4.3191 C.2     
  21 O21           -2.4404    -3.4228    -5.3186 O.2     
  22 C22           -1.8409    -5.2889    -4.0042 C.3     
  23 O23           -2.5335    -6.0111    -5.0244 O.3     
  24 N24           -4.8968    -7.9037    -5.0318 N.am    
  25 C25           -3.8192    -7.8499    -4.0271 C.3     
  26 C26           -2.5582    -7.4253    -4.8205 C.3     
  27 C27           -2.7664    -8.1770    -6.1618 C.3     
  28 C28           -4.2962    -8.1200    -6.3562 C.3     
  29 C29           -4.7956    -9.4411    -6.9445 C.3     
  30 N30           -4.2758    -9.5971    -8.3053 N.pl3   
  31 C31           -4.5121   -10.7722    -9.0091 C.ar    
  32 C32           -5.2431   -11.7964    -8.4153 C.ar    
  33 C33           -5.4708   -12.9602    -9.1269 C.ar    
  34 C34           -4.9579   -13.0614   -10.4136 C.ar    
  35 C35           -4.2415   -12.0060   -10.9408 C.ar    
  36 N36           -4.0442   -10.9049   -10.2405 N.ar    
  37 C37           -6.2146    -7.7809    -4.7774 C.2     
  38 N38           -6.6363    -7.4928    -3.5301 N.am    
  39 O39           -7.0231    -7.9300    -5.6732 O.2     
  40 C40          -10.7164    -7.3940    -2.6798 C.ar    
  41 C41           -9.8158    -7.8656    -1.7260 C.ar    
  42 C42           -8.4669    -7.8969    -2.0093 C.ar    
  43 C43           -8.0049    -7.4597    -3.2449 C.ar    
  44 C44           -8.9009    -6.9892    -4.1973 C.ar    
  45 C45          -10.2507    -6.9556    -3.9183 C.ar    
  46 C46          -12.1689    -7.3650    -2.3796 C.ar    
  47 C47          -13.0706    -6.8939    -3.3320 C.ar    
  48 C48          -14.4209    -6.8696    -3.0475 C.ar    
  49 C49          -14.8797    -7.3113    -1.8195 C.ar    
  50 C50          -13.9891    -7.7796    -0.8703 C.ar    
  51 C51          -12.6373    -7.8142    -1.1463 C.ar    
  52 H52           -1.1091    -0.8350    -1.7583 H       
  53 H53           -2.3541    -1.1655    -3.8401 H       
  54 H54           -0.8371    -1.3244    -4.7576 H       
  55 H55           -1.5405     2.3602    -3.5088 H       
  56 H56            1.2587    -1.5834    -3.3432 H       
  57 H57           -1.8520    -2.4894     2.2626 H       
  58 H58            0.2263    -5.7570     0.4756 H       
  59 H59            2.7953    -4.3065    -0.7103 H       
  60 H60            1.5637    -5.3501    -1.4603 H       
  61 H61            1.8202    -3.6972    -2.0690 H       
  62 H62           -2.5944    -5.4705     1.7615 H       
  63 H63           -1.0877    -6.0740     2.4922 H       
  64 H64           -1.9547    -4.7103     3.2383 H       
  65 H65           -1.1467    -0.1317     0.0410 H       
  66 H66           -1.2226    -0.2951     1.8118 H       
  67 H67            0.3360     0.0237     1.0135 H       
  68 H68           -0.8327    -3.2487    -2.6904 H       
  69 H69           -0.8051    -5.6257    -3.9600 H       
  70 H70           -2.3222    -5.4668    -3.0425 H       
  71 H71           -4.0518    -7.1108    -3.2605 H       
  72 H72           -3.6713    -8.8313    -3.5766 H       
  73 H73           -1.6502    -7.7618    -4.3202 H       
  74 H74           -2.2548    -7.6628    -6.9754 H       
  75 H75           -2.4260    -9.2094    -6.0821 H       
  76 H76           -4.5551    -7.2949    -7.0198 H       
  77 H77           -4.4484   -10.2686    -6.3259 H       
  78 H78           -5.8853    -9.4387    -6.9699 H       
  79 H79           -3.7667    -8.8803    -8.7152 H       
  80 H80           -5.6272   -11.6843    -7.4121 H       
  81 H81           -6.0344   -13.7722    -8.6918 H       
  82 H82           -5.1177   -13.9570   -10.9957 H       
  83 H83           -3.8409   -12.0805   -11.9410 H       
  84 H84           -5.9904    -7.3085    -2.8303 H       
  85 H85          -10.1743    -8.2055    -0.7656 H       
  86 H86           -7.7687    -8.2622    -1.2706 H       
  87 H87           -8.5396    -6.6492    -5.1566 H       
  88 H88          -10.9467    -6.5901    -4.6589 H       
  89 H89          -12.7135    -6.5481    -4.2908 H       
  90 H90          -15.1206    -6.5047    -3.7848 H       
  91 H91          -15.9371    -7.2902    -1.6010 H       
  92 H92          -14.3528    -8.1229     0.0869 H       
  93 H93          -11.9433    -8.1844    -0.4062 H       
@<TRIPOS>BOND
   1    1    2 1
   2    1    4 2
   3    1    5 1
   4    2    3 1
   5    2    6 1
   6    2   52 1
   7    3   19 1
   8    3   53 1
   9    3   54 1
  10    5   55 1
  11    6    7 am
  12    6   56 1
  13    7    8 2
  14    7    9 2
  15    7   10 1
  16   10   11 ar
  17   10   15 ar
  18   11   12 ar
  19   11   18 1
  20   12   13 ar
  21   12   57 1
  22   13   14 ar
  23   13   17 1
  24   14   15 ar
  25   14   58 1
  26   15   16 1
  27   16   59 1
  28   16   60 1
  29   16   61 1
  30   17   62 1
  31   17   63 1
  32   17   64 1
  33   18   65 1
  34   18   66 1
  35   18   67 1
  36   19   20 am
  37   19   68 1
  38   20   21 2
  39   20   22 1
  40   22   23 1
  41   22   69 1
  42   22   70 1
  43   23   26 1
  44   24   25 1
  45   24   28 1
  46   24   37 am
  47   25   26 1
  48   25   71 1
  49   25   72 1
  50   26   27 1
  51   26   73 1
  52   27   28 1
  53   27   74 1
  54   27   75 1
  55   28   29 1
  56   28   76 1
  57   29   30 1
  58   29   77 1
  59   29   78 1
  60   30   31 1
  61   30   79 1
  62   31   32 ar
  63   31   36 ar
  64   32   33 ar
  65   32   80 1
  66   33   34 ar
  67   33   81 1
  68   34   35 ar
  69   34   82 1
  70   35   36 ar
  71   35   83 1
  72   37   38 am
  73   37   39 2
  74   38   43 1
  75   38   84 1
  76   40   41 ar
  77   40   45 ar
  78   40   46 1
  79   41   42 ar
  80   41   85 1
  81   42   43 ar
  82   42   86 1
  83   43   44 ar
  84   44   45 ar
  85   44   87 1
  86   45   88 1
  87   46   47 ar
  88   46   51 ar
  89   47   48 ar
  90   47   89 1
  91   48   49 ar
  92   48   90 1
  93   49   50 ar
  94   49   91 1
  95   50   51 ar
  96   50   92 1
  97   51   93 1

#	End of record

