#	Name: ASD00841926
#	Creating user name:	WinNT
#	Creation time:	15. 06. 2019 18:43

#	Modifying user name:	WinNT
#	Modification time:	15. 06. 2019 18:43

#	Program:	/corina/corina34_cracker 3.40 0067  02.08.2006

@<TRIPOS>MOLECULE
ASD00841926
  85   90    0    0    0
SMALL
NO_CHARGES


@<TRIPOS>ATOM
   1 C1             1.0068     1.5579    -0.3812 C.ar    
   2 C2             1.3136     0.2278    -0.6281 C.ar    
   3 C3             1.2442    -0.7003     0.4009 C.ar    
   4 C4             0.8699    -0.2981     1.6681 C.ar    
   5 C5             0.5640     1.0284     1.9116 C.ar    
   6 C6             0.6329     1.9552     0.8882 C.ar    
   7 C7             1.5764    -2.1462     0.1360 C.3     
   8 C8             1.3074    -2.9862     1.3664 C.2     
   9 C9             0.7732    -2.6696    -1.0564 C.3     
  10 C10           -0.6960    -2.4393    -0.8124 C.2     
  11 N11           -1.6064    -2.9101    -1.6876 N.am    
  12 O12           -1.0592    -1.8304     0.1716 O.2     
  13 C13           -3.0328    -2.5979    -1.5246 C.3     
  14 C14           -3.8271    -3.9078    -1.5215 C.3     
  15 C15           -3.4982    -4.7021    -2.7876 C.3     
  16 C16           -2.0061    -5.0420    -2.8055 C.3     
  17 C17           -1.1906    -3.7403    -2.8263 C.3     
  18 N18           -4.2832    -5.9437    -2.8041 N.3     
  19 C19           -4.0830    -6.6766    -4.0620 C.3     
  20 C20           -4.8527    -7.9984    -4.0073 C.3     
  21 N21           -6.2787    -7.7229    -3.7828 N.3     
  22 C22           -6.4789    -6.9900    -2.5249 C.3     
  23 C23           -5.7092    -5.6682    -2.5796 C.3     
  24 H24           -6.6768    -7.2199    -4.5616 H       
  25 O25            0.2362    -3.1387     1.9144 O.2     
  26 N26            2.4784    -3.5307     1.7376 N.am    
  27 C27            3.0589    -2.3131    -0.1062 C.ar    
  28 C28            3.5260    -3.1560     0.8948 C.ar    
  29 C29            3.9130    -1.8110    -1.0621 C.ar    
  30 C30            5.2565    -2.1455    -1.0326 C.ar    
  31 C31            5.7351    -2.9852    -0.0394 C.ar    
  32 C32            4.8782    -3.4894     0.9202 C.ar    
  33 Cl33           6.3375    -1.5154    -2.2360 Cl      
  34 F34            7.0456    -3.3124    -0.0093 F       
  35 C35            2.4052    -6.1804     2.4780 C.ar    
  36 C36            1.1621    -6.5669     1.9991 C.ar    
  37 C37            3.4466    -7.0880     2.5048 C.ar    
  38 C38            3.2506    -8.3802     2.0545 C.ar    
  39 C39            2.0122    -8.7680     1.5766 C.ar    
  40 C40            0.9678    -7.8646     1.5481 C.ar    
  41 H41            1.8616    -9.7781     1.2253 H       
  42 O42            0.1360    -5.6761     1.9721 O.3     
  43 C43           -1.1159    -6.1437     1.4659 C.3     
  44 O44            1.6813    -0.1655    -1.8759 O.3     
  45 C45            2.1644     0.2243    -4.2115 C.3     
  46 C46            1.6224     0.8188    -2.9101 C.3     
  47 S47            2.6580    -4.5313     3.0448 S.o2    
  48 O48            4.0225    -4.4448     3.4319 O.2     
  49 O49            1.5806    -4.2398     3.9244 O.2     
  50 H50            1.0645     2.2830    -1.1794 H       
  51 H51            0.8156    -1.0202     2.4694 H       
  52 H52            0.2709     1.3408     2.9030 H       
  53 H53            0.3936     2.9906     1.0809 H       
  54 H54            1.0785    -2.1418    -1.9599 H       
  55 H55            0.9583    -3.7367    -1.1789 H       
  56 H56           -3.1868    -2.0749    -0.5807 H       
  57 H57           -3.3662    -1.9703    -2.3511 H       
  58 H58           -3.5574    -4.4947    -0.6435 H       
  59 H59           -4.8941    -3.6862    -1.4979 H       
  60 H60           -3.7451    -4.1049    -3.6654 H       
  61 H61           -1.7536    -5.6182    -1.9153 H       
  62 H62           -1.7771    -5.6277    -3.6957 H       
  63 H63           -1.3750    -3.2085    -3.7597 H       
  64 H64           -0.1292    -3.9727    -2.7392 H       
  65 H65           -4.4496    -6.0766    -4.8949 H       
  66 H66           -3.0210    -6.8797    -4.1995 H       
  67 H67           -4.7292    -8.5305    -4.9505 H       
  68 H68           -4.4677    -8.6099    -3.1913 H       
  69 H69           -7.5409    -6.7869    -2.3874 H       
  70 H70           -6.1123    -7.5900    -1.6920 H       
  71 H71           -5.8327    -5.1361    -1.6364 H       
  72 H72           -6.0943    -5.0567    -3.3956 H       
  73 H73            3.5356    -1.1572    -1.8344 H       
  74 H74            5.2577    -4.1431     1.6916 H       
  75 H75            4.4146    -6.7876     2.8776 H       
  76 H76            4.0660    -9.0880     2.0756 H       
  77 H77            0.0006    -8.1682     1.1754 H       
  78 H78           -1.8462    -5.3353     1.4998 H       
  79 H79           -0.9898    -6.4765     0.4357 H       
  80 H80           -1.4665    -6.9760     2.0763 H       
  81 H81            3.1676    -0.1670    -4.0421 H       
  82 H82            1.5107    -0.5828    -4.5423 H       
  83 H83            2.2012     0.9990    -4.9773 H       
  84 H84            0.5883     1.1308    -3.0563 H       
  85 H85            2.2254     1.6811    -2.6258 H       
@<TRIPOS>BOND
   1    1    2 ar
   2    1    6 ar
   3    1   50 1
   4    2    3 ar
   5    2   44 1
   6    3    4 ar
   7    3    7 1
   8    4    5 ar
   9    4   51 1
  10    5    6 ar
  11    5   52 1
  12    6   53 1
  13    7    8 1
  14    7    9 1
  15    7   27 1
  16    8   25 2
  17    8   26 am
  18    9   10 1
  19    9   54 1
  20    9   55 1
  21   10   11 am
  22   10   12 2
  23   11   13 1
  24   11   17 1
  25   13   14 1
  26   13   56 1
  27   13   57 1
  28   14   15 1
  29   14   58 1
  30   14   59 1
  31   15   16 1
  32   15   18 1
  33   15   60 1
  34   16   17 1
  35   16   61 1
  36   16   62 1
  37   17   63 1
  38   17   64 1
  39   18   19 1
  40   18   23 1
  41   19   20 1
  42   19   65 1
  43   19   66 1
  44   20   21 1
  45   20   67 1
  46   20   68 1
  47   21   22 1
  48   21   24 1
  49   22   23 1
  50   22   69 1
  51   22   70 1
  52   23   71 1
  53   23   72 1
  54   26   47 am
  55   26   28 1
  56   27   28 ar
  57   27   29 ar
  58   28   32 ar
  59   29   30 ar
  60   29   73 1
  61   30   31 ar
  62   30   33 1
  63   31   32 ar
  64   31   34 1
  65   32   74 1
  66   35   36 ar
  67   35   37 ar
  68   35   47 1
  69   36   42 1
  70   36   40 ar
  71   37   38 ar
  72   37   75 1
  73   38   39 ar
  74   38   76 1
  75   39   40 ar
  76   39   41 1
  77   40   77 1
  78   42   43 1
  79   43   78 1
  80   43   79 1
  81   43   80 1
  82   44   46 1
  83   45   46 1
  84   45   81 1
  85   45   82 1
  86   45   83 1
  87   46   84 1
  88   46   85 1
  89   47   48 2
  90   47   49 2

#	End of record

