#	Name: ASD03900002
#	Creating user name:	WinNT
#	Creation time:	15. 06. 2019 20:47

#	Modifying user name:	WinNT
#	Modification time:	15. 06. 2019 20:47

#	Program:	/corina/corina34_cracker 3.40 0067  02.08.2006

@<TRIPOS>MOLECULE
ASD03900002
  60   62    0    0    0
SMALL
NO_CHARGES


@<TRIPOS>ATOM
   1 C1            -0.0104     1.4887     0.0103 C.3     
   2 C2            -0.0431    -0.0179     0.0005 C.ar    
   3 C3             1.4209     1.9601     0.0192 C.ar    
   4 C4            -0.7048     2.0142    -1.2196 C.ar    
   5 O5            -0.6783     1.9720     1.1776 O.3     
   6 C6             0.9243    -0.7244    -0.6905 C.ar    
   7 C7             0.8973    -2.1051    -0.7016 C.ar    
   8 C8            -0.1030    -2.7842    -0.0176 C.ar    
   9 C9            -1.0731    -2.0714     0.6755 C.ar    
  10 C10           -1.0370    -0.6909     0.6871 C.ar    
  11 C11            2.1149     2.0805    -1.1708 C.ar    
  12 C12            3.4268     2.5122    -1.1663 C.ar    
  13 C13            4.0490     2.8256     0.0354 C.ar    
  14 C14            3.3490     2.7035     1.2290 C.ar    
  15 C15            2.0356     2.2766     1.2168 C.ar    
  16 C16           -1.3498     3.2368    -1.1783 C.ar    
  17 C17           -1.9871     3.7213    -2.3036 C.ar    
  18 C18           -1.9797     2.9792    -3.4778 C.ar    
  19 C19           -1.3309     1.7515    -3.5158 C.ar    
  20 C20           -0.6907     1.2755    -2.3885 C.ar    
  21 N21           -0.1335    -4.1806    -0.0271 N.pl3   
  22 C22            0.8121    -4.9283    -0.8596 C.3     
  23 C23           -1.1111    -4.8975     0.7954 C.3     
  24 N24           -2.6237     3.4661    -4.6176 N.pl3   
  25 C25           -3.3079     4.7608    -4.5756 C.3     
  26 C26           -2.6149     2.6820    -5.8551 C.3     
  27 N27            5.3758     3.2621     0.0436 N.pl3   
  28 C28            6.1127     3.3898    -1.2161 C.3     
  29 C29            6.0305     3.5922     1.3120 C.3     
  30 H30           -1.6061     1.7063     1.2382 H       
  31 H31            1.7015    -0.1958    -1.2224 H       
  32 H32            1.6529    -2.6563    -1.2417 H       
  33 H33           -1.8522    -2.5964     1.2083 H       
  34 H34           -1.7908    -0.1361     1.2261 H       
  35 H35            1.6306     1.8363    -2.1048 H       
  36 H36            3.9683     2.6057    -2.0960 H       
  37 H37            3.8298     2.9464     2.1650 H       
  38 H38            1.4906     2.1818     2.1444 H       
  39 H39           -1.3554     3.8131    -0.2650 H       
  40 H40           -2.4909     4.6760    -2.2706 H       
  41 H41           -1.3233     1.1720    -4.4271 H       
  42 H42           -0.1857     0.3212    -2.4174 H       
  43 H43            1.7166    -5.1337    -0.2871 H       
  44 H44            0.3575    -5.8689    -1.1705 H       
  45 H45            1.0658    -4.3386    -1.7405 H       
  46 H46           -1.7812    -4.1811     1.2705 H       
  47 H47           -1.6895    -5.5737     0.1657 H       
  48 H48           -0.5901    -5.4713     1.5618 H       
  49 H49           -2.6099     5.5499    -4.8555 H       
  50 H50           -4.1452     4.7521    -5.2734 H       
  51 H51           -3.6776     4.9438    -3.5667 H       
  52 H52           -3.4804     2.0196    -5.8717 H       
  53 H53           -2.6558     3.3548    -6.7118 H       
  54 H54           -1.7020     2.0883    -5.9026 H       
  55 H55            5.6045     4.1044    -1.8635 H       
  56 H56            7.1242     3.7406    -1.0113 H       
  57 H57            6.1578     2.4195    -1.7106 H       
  58 H58            6.5123     2.7013     1.7148 H       
  59 H59            6.7797     4.3658     1.1436 H       
  60 H60            5.2866     3.9551     2.0212 H       
@<TRIPOS>BOND
   1    1    2 1
   2    1    3 1
   3    1    4 1
   4    1    5 1
   5    2    6 ar
   6    2   10 ar
   7    3   11 ar
   8    3   15 ar
   9    4   16 ar
  10    4   20 ar
  11    5   30 1
  12    6    7 ar
  13    6   31 1
  14    7    8 ar
  15    7   32 1
  16    8    9 ar
  17    8   21 1
  18    9   10 ar
  19    9   33 1
  20   10   34 1
  21   11   12 ar
  22   11   35 1
  23   12   13 ar
  24   12   36 1
  25   13   14 ar
  26   13   27 1
  27   14   15 ar
  28   14   37 1
  29   15   38 1
  30   16   17 ar
  31   16   39 1
  32   17   18 ar
  33   17   40 1
  34   18   19 ar
  35   18   24 1
  36   19   20 ar
  37   19   41 1
  38   20   42 1
  39   21   22 1
  40   21   23 1
  41   22   43 1
  42   22   44 1
  43   22   45 1
  44   23   46 1
  45   23   47 1
  46   23   48 1
  47   24   25 1
  48   24   26 1
  49   25   49 1
  50   25   50 1
  51   25   51 1
  52   26   52 1
  53   26   53 1
  54   26   54 1
  55   27   28 1
  56   27   29 1
  57   28   55 1
  58   28   56 1
  59   28   57 1
  60   29   58 1
  61   29   59 1
  62   29   60 1

#	End of record

