#	Name: ASD08178409
#	Creating user name:	WinNT
#	Creation time:	15. 06. 2019 21:18

#	Modifying user name:	WinNT
#	Modification time:	15. 06. 2019 21:18

#	Program:	/corina/corina34_cracker 3.40 0067  02.08.2006

@<TRIPOS>MOLECULE
ASD08178409
  84   88    0    0    0
SMALL
NO_CHARGES


@<TRIPOS>ATOM
   1 N1            -6.8176     2.2932     3.3404 N.am    
   2 C2            -6.3619     1.0029     3.0724 C.ar    
   3 C3            -5.0638     0.8015     2.6074 C.ar    
   4 N4            -7.1592    -0.0375     3.2640 N.ar    
   5 N5            -6.7781    -1.2406     3.0299 N.ar    
   6 C6            -5.5696    -1.5221     2.5838 C.ar    
   7 C7            -4.6588    -0.5006     2.3564 C.ar    
   8 C8            -5.1759    -2.9538     2.3267 C.3     
   9 C9            -5.4045    -3.7810     3.5933 C.3     
  10 C10           -5.0048    -5.2346     3.3323 C.3     
  11 C11           -5.2334    -6.0617     4.5989 C.3     
  12 C12           -4.8397    -7.4935     4.3418 C.2     
  13 N13           -3.6653    -8.0077     4.5261 N.2     
  14 N14           -3.5355    -9.2329     4.2506 N.2     
  15 C15           -4.5808    -9.8660     3.8103 C.2     
  16 S16           -5.8973    -8.7719     3.7430 S.3     
  17 N17           -4.6253   -11.2105     3.4575 N.am    
  18 C18           -3.5177   -11.9714     3.5615 C.2     
  19 C19           -3.5659   -13.4283     3.1791 C.3     
  20 O20           -2.4823   -11.4837     3.9627 O.2     
  21 C21           -2.2076   -14.0472     3.3864 C.ar    
  22 C22           -8.1052     2.4955     3.6834 C.2     
  23 C23           -8.5674     3.8681     4.0997 C.3     
  24 O24           -8.8919     1.5729     3.6569 O.2     
  25 C25          -10.0372     3.8247     4.4293 C.ar    
  26 C26          -10.4483     3.5478     5.7198 C.ar    
  27 C27          -10.9743     4.0674     3.4425 C.ar    
  28 C28          -12.3226     4.0276     3.7448 C.ar    
  29 C29          -12.7338     3.7446     5.0339 C.ar    
  30 C30          -11.7966     3.5080     6.0221 C.ar    
  31 C31           -1.8484   -14.5231     4.6353 C.ar    
  32 C32           -0.6036   -15.0907     4.8248 C.ar    
  33 C33            0.2822   -15.1824     3.7654 C.ar    
  34 C34           -0.0768   -14.7066     2.5186 C.ar    
  35 C35           -1.3247   -14.1438     2.3277 C.ar    
  36 C36           -2.6010   -14.5519     5.9415 C.3     
  37 N37           -1.7313   -15.1761     6.9436 N.pl3   
  38 C38           -0.4779   -15.5199     6.2647 C.3     
  39 C39           -2.0366   -15.3994     8.2801 C.2     
  40 O40           -1.1716   -16.0861     9.0679 O.3     
  41 C41           -3.1752   -14.9406     8.7868 C.2     
  42 C42           -1.5281   -16.2390    10.4432 C.3     
  43 C43           -2.8273   -17.0404    10.5473 C.3     
  44 C44           -0.4111   -16.9806    11.1802 C.3     
  45 C45           -1.7276   -14.8598    11.0747 C.3     
  46 H46           -6.2069     3.0447     3.2840 H       
  47 H47           -4.3943     1.6337     2.4471 H       
  48 H48           -3.6650    -0.7131     1.9908 H       
  49 H49           -5.7816    -3.3571     1.5151 H       
  50 H50           -4.1225    -2.9968     2.0498 H       
  51 H51           -4.7988    -3.3777     4.4049 H       
  52 H52           -6.4579    -3.7379     3.8701 H       
  53 H53           -5.6105    -5.6378     2.5207 H       
  54 H54           -3.9514    -5.2776     3.0555 H       
  55 H55           -4.6277    -5.6585     5.4105 H       
  56 H56           -6.2868    -6.0187     4.8757 H       
  57 H57           -5.4533   -11.6006     3.1366 H       
  58 H58           -4.2984   -13.9431     3.8009 H       
  59 H59           -3.8507   -13.5197     2.1310 H       
  60 H60           -8.0074     4.1891     4.9781 H       
  61 H61           -8.3985     4.5713     3.2842 H       
  62 H62           -9.7161     3.3623     6.4917 H       
  63 H63          -10.6531     4.2884     2.4354 H       
  64 H64          -13.0547     4.2178     2.9740 H       
  65 H65          -13.7872     3.7139     5.2702 H       
  66 H66          -12.1179     3.2870     7.0293 H       
  67 H67            1.2556   -15.6262     3.9133 H       
  68 H68            0.6156   -14.7785     1.6929 H       
  69 H69           -1.6062   -13.7717     1.3537 H       
  70 H70           -2.8477   -13.5354     6.2482 H       
  71 H71           -3.5140   -15.1367     5.8291 H       
  72 H72           -0.3130   -16.5962     6.3164 H       
  73 H73            0.3533   -14.9949     6.7355 H       
  74 H74           -3.4600   -15.1989     9.7960 H       
  75 H75           -3.8164   -14.3092     8.1896 H       
  76 H76           -2.6074   -18.1034    10.4490 H       
  77 H77           -3.2929   -16.8536    11.5150 H       
  78 H78           -3.5073   -16.7349     9.7520 H       
  79 H79            0.5145   -16.4098    11.1061 H       
  80 H80           -0.6830   -17.0973    12.2293 H       
  81 H81           -0.2689   -17.9632    10.7303 H       
  82 H82           -2.3977   -14.2681    10.4510 H       
  83 H83           -2.1620   -14.9743    12.0678 H       
  84 H84           -0.7652   -14.3544    11.1552 H       
@<TRIPOS>BOND
   1    1    2 1
   2    1   22 am
   3    1   46 1
   4    2    3 ar
   5    2    4 ar
   6    3    7 ar
   7    3   47 1
   8    4    5 ar
   9    5    6 ar
  10    6    7 ar
  11    6    8 1
  12    7   48 1
  13    8    9 1
  14    8   49 1
  15    8   50 1
  16    9   10 1
  17    9   51 1
  18    9   52 1
  19   10   11 1
  20   10   53 1
  21   10   54 1
  22   11   12 1
  23   11   55 1
  24   11   56 1
  25   12   13 2
  26   12   16 1
  27   13   14 1
  28   14   15 2
  29   15   16 1
  30   15   17 1
  31   17   18 am
  32   17   57 1
  33   18   19 1
  34   18   20 2
  35   19   21 1
  36   19   58 1
  37   19   59 1
  38   21   31 ar
  39   21   35 ar
  40   22   23 1
  41   22   24 2
  42   23   25 1
  43   23   60 1
  44   23   61 1
  45   25   26 ar
  46   25   27 ar
  47   26   30 ar
  48   26   62 1
  49   27   28 ar
  50   27   63 1
  51   28   29 ar
  52   28   64 1
  53   29   30 ar
  54   29   65 1
  55   30   66 1
  56   31   32 ar
  57   31   36 1
  58   32   33 ar
  59   32   38 1
  60   33   34 ar
  61   33   67 1
  62   34   35 ar
  63   34   68 1
  64   35   69 1
  65   36   37 1
  66   36   70 1
  67   36   71 1
  68   37   38 1
  69   37   39 1
  70   38   72 1
  71   38   73 1
  72   39   40 1
  73   39   41 2
  74   40   42 1
  75   41   74 1
  76   41   75 1
  77   42   43 1
  78   42   44 1
  79   42   45 1
  80   43   76 1
  81   43   77 1
  82   43   78 1
  83   44   79 1
  84   44   80 1
  85   44   81 1
  86   45   82 1
  87   45   83 1
  88   45   84 1

#	End of record

