#	Name: ASD01880398
#	Creating user name:	WinNT
#	Creation time:	15. 06. 2019 19:40

#	Modifying user name:	WinNT
#	Modification time:	15. 06. 2019 19:40

#	Program:	/corina/corina34_cracker 3.40 0067  02.08.2006

@<TRIPOS>MOLECULE
ASD01880398
  39   40    0    0    0
SMALL
NO_CHARGES


@<TRIPOS>ATOM
   1 C1            -0.0159     1.3177     0.0093 C.ar    
   2 N2             0.0021    -0.0041     0.0020 N.ar    
   3 C3            -1.1218    -0.7052     0.0090 C.ar    
   4 C4            -2.3614    -0.0158     0.0245 C.ar    
   5 C5            -2.3245     1.3812     0.0317 C.ar    
   6 N6            -1.1378     2.0017     0.0291 N.ar    
   7 C7            -3.7207    -0.5234     0.0347 C.2     
   8 C8            -4.6578     0.4042     0.0486 C.2     
   9 S9            -3.9638     2.0146     0.0507 S.3     
  10 C10           -6.1371     0.1169     0.0604 C.3     
  11 C11           -6.6246     0.0113     1.5068 C.3     
  12 C12           -8.1265    -0.2804     1.5188 C.3     
  13 N13           -1.0872    -2.0879     0.0008 N.pl3   
  14 C14            0.1994    -2.7883    -0.0158 C.3     
  15 C15           -0.0424    -4.2991    -0.0220 C.3     
  16 C16           -1.9040    -5.2674    -1.2703 C.2     
  17 C17           -0.7272    -4.6929    -1.3054 C.2     
  18 Cl18           1.4920     2.1781    -0.0005 Cl      
  19 C19            1.2770    -5.0194     0.0849 C.2     
  20 C20            1.5060    -5.8271     1.0997 C.2     
  21 O21            2.6937    -6.4756     1.1959 O.3     
  22 H22           -3.9474    -1.5794     0.0308 H       
  23 H23           -6.6680     0.9243    -0.4439 H       
  24 H24           -6.3288    -0.8230    -0.4572 H       
  25 H25           -6.0937    -0.7961     2.0111 H       
  26 H26           -6.4329     0.9512     2.0244 H       
  27 H27           -8.6574     0.5270     1.0145 H       
  28 H28           -8.3182    -1.2203     1.0012 H       
  29 H29           -8.4738    -0.3557     2.5492 H       
  30 H30           -1.9148    -2.5938     0.0059 H       
  31 H31            0.7555    -2.5057    -0.9096 H       
  32 H32            0.7728    -2.5158     0.8703 H       
  33 H33           -0.6736    -4.5695     0.8245 H       
  34 H34           -2.3834    -5.4588    -0.3216 H       
  35 H35           -2.3947    -5.5496    -2.1900 H       
  36 H36           -0.2478    -4.5015    -2.2540 H       
  37 H37            2.0347    -4.8733    -0.6707 H       
  38 H38            0.7482    -5.9732     1.8552 H       
  39 H39            2.7689    -7.0453     1.9736 H       
@<TRIPOS>BOND
   1    1    2 ar
   2    1   18 1
   3    1    6 ar
   4    2    3 ar
   5    3    4 ar
   6    3   13 1
   7    4    5 ar
   8    4    7 1
   9    5    6 ar
  10    5    9 1
  11    7    8 2
  12    7   22 1
  13    8    9 1
  14    8   10 1
  15   10   11 1
  16   10   23 1
  17   10   24 1
  18   11   12 1
  19   11   25 1
  20   11   26 1
  21   12   27 1
  22   12   28 1
  23   12   29 1
  24   13   14 1
  25   13   30 1
  26   14   15 1
  27   14   31 1
  28   14   32 1
  29   15   19 1
  30   15   17 1
  31   15   33 1
  32   16   17 2
  33   16   34 1
  34   16   35 1
  35   17   36 1
  36   19   20 2
  37   19   37 1
  38   20   21 1
  39   20   38 1
  40   21   39 1

#	End of record

