#	Name: ASD04030010
#	Creating user name:	WinNT
#	Creation time:	15. 06. 2019 20:48

#	Modifying user name:	WinNT
#	Modification time:	15. 06. 2019 20:48

#	Program:	/corina/corina34_cracker 3.40 0067  02.08.2006

@<TRIPOS>MOLECULE
ASD04030010
  58   61    0    0    0
SMALL
NO_CHARGES


@<TRIPOS>ATOM
   1 C1            -0.0168     1.3900     0.0097 C.ar    
   2 C2             0.0021    -0.0041     0.0020 C.ar    
   3 C3            -2.3925    -0.0502     0.0232 C.ar    
   4 C4            -6.1572     2.0635     0.0672 C.3     
   5 C5            -1.1828    -0.7146     0.0090 C.ar    
   6 C6            -6.2413     2.9437     1.3159 C.3     
   7 C7            -7.2983     1.0444     0.0839 C.3     
   8 C8            -6.2733     2.9387    -1.1824 C.3     
   9 C9             7.2521     3.1489    -0.0595 C.ar    
  10 C10            5.6467     0.4656    -0.0645 C.2     
  11 C11           -2.4247     1.3460     0.0208 C.ar    
  12 C12            6.4788    -1.5205     1.0758 C.3     
  13 C13            1.2575     2.1505     0.0016 C.ar    
  14 C14            1.2383     3.5477     0.0151 C.ar    
  15 C15            2.4136     4.2636     0.0078 C.ar    
  16 C16            3.6364     3.6005    -0.0127 C.ar    
  17 C17            3.6588     2.1971    -0.0259 C.ar    
  18 C18            2.4713     1.4741    -0.0136 C.ar    
  19 O19            4.9128     4.0396    -0.0237 O.3     
  20 C20            5.7836     3.0178    -0.0434 C.2     
  21 C21            5.0857     1.8208    -0.0462 C.2     
  22 C22           -3.7208     2.0575     0.0360 C.2     
  23 N23           -4.8731     1.3586     0.0522 N.am    
  24 C24           -1.2320     2.0669     0.0191 C.ar    
  25 O25           -3.7471     3.2727     0.0339 O.2     
  26 O26            5.8669    -0.0876    -1.1260 O.2     
  27 N27            5.9184    -0.1670     1.0941 N.am    
  28 C28            8.0582     2.0074    -0.0858 C.ar    
  29 C29            9.4303     2.1364    -0.1065 C.ar    
  30 C30           10.0112     3.3954    -0.1012 C.ar    
  31 C31            9.2169     4.5314    -0.0747 C.ar    
  32 C32            7.8436     4.4152    -0.0544 C.ar    
  33 F33           11.3567     3.5155    -0.1216 F       
  34 H34            0.9454    -0.5299    -0.0098 H       
  35 H35           -3.3155    -0.6109     0.0283 H       
  36 H36           -1.1623    -1.7944     0.0030 H       
  37 H37           -5.4283     3.6697     1.3040 H       
  38 H38           -7.1967     3.4682     1.3270 H       
  39 H39           -6.1586     2.3202     2.2061 H       
  40 H40           -7.2157     0.4210     0.9741 H       
  41 H41           -8.2538     1.5690     0.0950 H       
  42 H42           -7.2385     0.4174    -0.8057 H       
  43 H43           -6.2134     2.3117    -2.0720 H       
  44 H44           -7.2287     3.4632    -1.1712 H       
  45 H45           -5.4603     3.6647    -1.1943 H       
  46 H46            6.6300    -1.8650     2.0988 H       
  47 H47            5.7893    -2.1923     0.5644 H       
  48 H48            7.4338    -1.5113     0.5506 H       
  49 H49            0.2933     4.0702     0.0311 H       
  50 H50            2.3866     5.3432     0.0177 H       
  51 H51            2.4919     0.3943    -0.0196 H       
  52 H52           -4.8521     0.3888     0.0538 H       
  53 H53           -1.2512     3.1467     0.0173 H       
  54 H54            5.7430     0.2738     1.9401 H       
  55 H55            7.6068     1.0262    -0.0896 H       
  56 H56           10.0542     1.2551    -0.1265 H       
  57 H57            9.6751     5.5094    -0.0704 H       
  58 H58            7.2258     5.3010    -0.0389 H       
@<TRIPOS>BOND
   1    1    2 ar
   2    1   13 1
   3    1   24 ar
   4    2    5 ar
   5    2   34 1
   6    3    5 ar
   7    3   35 1
   8    3   11 ar
   9    4   23 1
  10    4    8 1
  11    4    6 1
  12    4    7 1
  13    5   36 1
  14    6   37 1
  15    6   38 1
  16    6   39 1
  17    7   40 1
  18    7   41 1
  19    7   42 1
  20    8   43 1
  21    8   44 1
  22    8   45 1
  23    9   32 ar
  24    9   20 1
  25    9   28 ar
  26   10   27 am
  27   10   26 2
  28   10   21 1
  29   11   22 1
  30   11   24 ar
  31   12   46 1
  32   12   47 1
  33   12   48 1
  34   12   27 1
  35   13   18 ar
  36   13   14 ar
  37   14   49 1
  38   14   15 ar
  39   15   16 ar
  40   15   50 1
  41   16   17 ar
  42   16   19 1
  43   17   18 ar
  44   17   21 1
  45   18   51 1
  46   19   20 1
  47   20   21 2
  48   22   23 am
  49   22   25 2
  50   23   52 1
  51   24   53 1
  52   27   54 1
  53   28   29 ar
  54   28   55 1
  55   29   30 ar
  56   29   56 1
  57   30   33 1
  58   30   31 ar
  59   31   57 1
  60   31   32 ar
  61   32   58 1

#	End of record

