#	Name: ASD03330049
#	Creating user name:	WinNT
#	Creation time:	15. 06. 2019 20:36

#	Modifying user name:	WinNT
#	Modification time:	15. 06. 2019 20:36

#	Program:	/corina/corina34_cracker 3.40 0067  02.08.2006

@<TRIPOS>MOLECULE
ASD03330049
  43   45    0    0    0
SMALL
NO_CHARGES


@<TRIPOS>ATOM
   1 O1            -0.0162     1.3452     0.0094 O.3     
   2 C2             0.0021    -0.0041     0.0020 C.2     
   3 C3             1.2864    -0.4454    -0.0126 C.2     
   4 C4             2.1263     0.7519    -0.0142 C.ar    
   5 C5             1.2361     1.8422     0.0001 C.ar    
   6 C6             3.5052     0.9736    -0.0255 C.ar    
   7 C7             3.9856     2.2539    -0.0226 C.ar    
   8 C8             3.1114     3.3331    -0.0084 C.ar    
   9 C9             1.7475     3.1345     0.0026 C.ar    
  10 C10           -1.1884    -0.8660     0.0088 C.2     
  11 O11           -1.0632    -2.0761     0.0015 O.2     
  12 N12           -2.4187    -0.3159     0.0230 N.am    
  13 C13           -3.6052    -1.1751     0.0297 C.3     
  14 C14           -4.8642    -0.3058     0.0458 C.3     
  15 C15           -6.0848    -1.1896     0.0527 C.ar    
  16 C16           -6.6324    -1.6002     1.2543 C.ar    
  17 C17           -7.7510    -2.4102     1.2643 C.ar    
  18 C18           -8.3260    -2.8124     0.0655 C.ar    
  19 C19           -7.7733    -2.3981    -1.1398 C.ar    
  20 C20           -6.6581    -1.5836    -1.1425 C.ar    
  21 N21           -9.4570    -3.6319     0.0719 N.pl3   
  22 C22          -10.0382    -4.0683     1.3439 C.3     
  23 C23          -10.0621    -4.0551    -1.1934 C.3     
  24 Cl24           5.6991     2.5322    -0.0360 Cl      
  25 H25            1.6199    -1.4726    -0.0213 H       
  26 H26            4.1889     0.1376    -0.0362 H       
  27 H27            3.5046     4.3390    -0.0062 H       
  28 H28            1.0775     3.9815     0.0133 H       
  29 H29           -2.5184     0.6490     0.0288 H       
  30 H30           -3.6065    -1.7999    -0.8634 H       
  31 H31           -3.5899    -1.8088     0.9164 H       
  32 H32           -4.8630     0.3190     0.9390 H       
  33 H33           -4.8795     0.3279    -0.8409 H       
  34 H34           -6.1846    -1.2874     2.1860 H       
  35 H35           -8.1779    -2.7308     2.2031 H       
  36 H36           -8.2180    -2.7090    -2.0736 H       
  37 H37           -6.2307    -1.2572    -2.0791 H       
  38 H38          -10.7853    -3.3443     1.6693 H       
  39 H39          -10.5092    -5.0425     1.2129 H       
  40 H40           -9.2526    -4.1426     2.0958 H       
  41 H41           -9.6093    -4.9923    -1.5172 H       
  42 H42          -11.1336    -4.1986    -1.0537 H       
  43 H43           -9.8937    -3.2895    -1.9507 H       
@<TRIPOS>BOND
   1    1    2 1
   2    1    5 1
   3    2    3 2
   4    2   10 1
   5    3    4 1
   6    3   25 1
   7    4    5 ar
   8    4    6 ar
   9    5    9 ar
  10    6    7 ar
  11    6   26 1
  12    7    8 ar
  13    7   24 1
  14    8    9 ar
  15    8   27 1
  16    9   28 1
  17   10   11 2
  18   10   12 am
  19   12   13 1
  20   12   29 1
  21   13   14 1
  22   13   30 1
  23   13   31 1
  24   14   15 1
  25   14   32 1
  26   14   33 1
  27   15   16 ar
  28   15   20 ar
  29   16   17 ar
  30   16   34 1
  31   17   18 ar
  32   17   35 1
  33   18   19 ar
  34   18   21 1
  35   19   20 ar
  36   19   36 1
  37   20   37 1
  38   21   22 1
  39   21   23 1
  40   22   38 1
  41   22   39 1
  42   22   40 1
  43   23   41 1
  44   23   42 1
  45   23   43 1

#	End of record

