#	Name: ASD02198040
#	Creating user name:	WinNT
#	Creation time:	15. 06. 2019 20:18

#	Modifying user name:	WinNT
#	Modification time:	15. 06. 2019 20:18

#	Program:	/corina/corina34_cracker 3.40 0067  02.08.2006

@<TRIPOS>MOLECULE
ASD02198040
  46   49    0    0    0
SMALL
NO_CHARGES


@<TRIPOS>ATOM
   1 C1             0.5430     1.3769    -0.6305 C.2     
   2 C2             0.4547     0.0034    -0.5432 C.2     
   3 C3            -0.7790    -0.6863    -0.3129 C.1     
   4 S4             2.1522     1.8664    -0.9090 S.3     
   5 C5             2.7264     0.2067    -0.9103 C.2     
   6 C6             1.6735    -0.6525    -0.6993 C.2     
   7 C7             4.0649    -0.1857    -1.0996 C.2     
   8 O8             4.3820    -1.3555    -0.9660 O.2     
   9 C9             5.0875     0.8217    -1.4610 C.ar    
  10 N10            1.8113    -2.0306    -0.6465 N.pl3   
  11 N11           -0.5251     2.2364    -0.5143 N.pl3   
  12 N12           -1.7576    -1.2335    -0.1302 N.1     
  13 C13           -0.3117     3.6173    -0.4939 C.ar    
  14 C14           -1.2266     4.4721    -1.0957 C.ar    
  15 C15           -1.0126     5.8362    -1.0738 C.ar    
  16 C16            0.1112     6.3516    -0.4540 C.ar    
  17 C17            1.0240     5.5035     0.1460 C.ar    
  18 C18            0.8130     4.1388     0.1332 C.ar    
  19 C19            4.7296     1.9447    -2.2088 C.ar    
  20 C20            5.6831     2.8846    -2.5460 C.ar    
  21 C21            6.9948     2.7202    -2.1459 C.ar    
  22 C22            7.3645     1.6027    -1.3981 C.ar    
  23 C23            6.4087     0.6541    -1.0505 C.ar    
  24 C24            8.7747     1.4283    -0.9699 C.ar    
  25 C25            9.7325     2.3800    -1.3136 C.ar    
  26 C26           11.0425     2.2131    -0.9123 C.ar    
  27 C27           11.4052     1.1035    -0.1703 C.ar    
  28 C28           10.4584     0.1554     0.1733 C.ar    
  29 C29            9.1445     0.3152    -0.2178 C.ar    
  30 H30            2.6853    -2.4354    -0.7613 H       
  31 H31            1.0338    -2.5903    -0.4947 H       
  32 H32           -1.4262     1.8838    -0.4465 H       
  33 H33           -2.1040     4.0703    -1.5805 H       
  34 H34           -1.7234     6.5013    -1.5415 H       
  35 H35            0.2765     7.4187    -0.4389 H       
  36 H36            1.9005     5.9093     0.6292 H       
  37 H37            1.5262     3.4770     0.6020 H       
  38 H38            3.7055     2.0784    -2.5243 H       
  39 H39            5.4021     3.7517    -3.1253 H       
  40 H40            7.7360     3.4588    -2.4132 H       
  41 H41            6.6907    -0.2126    -0.4711 H       
  42 H42            9.4505     3.2465    -1.8932 H       
  43 H43           11.7859     2.9500    -1.1785 H       
  44 H44           12.4313     0.9768     0.1417 H       
  45 H45           10.7470    -0.7092     0.7526 H       
  46 H46            8.4060    -0.4254     0.0513 H       
@<TRIPOS>BOND
   1    1    2 2
   2    1    4 1
   3    1   11 1
   4    2    3 1
   5    2    6 1
   6    3   12 3
   7    4    5 1
   8    5    6 2
   9    5    7 1
  10    6   10 1
  11    7    8 2
  12    7    9 1
  13    9   19 ar
  14    9   23 ar
  15   10   30 1
  16   10   31 1
  17   11   13 1
  18   11   32 1
  19   13   14 ar
  20   13   18 ar
  21   14   15 ar
  22   14   33 1
  23   15   16 ar
  24   15   34 1
  25   16   17 ar
  26   16   35 1
  27   17   18 ar
  28   17   36 1
  29   18   37 1
  30   19   20 ar
  31   19   38 1
  32   20   21 ar
  33   20   39 1
  34   21   22 ar
  35   21   40 1
  36   22   23 ar
  37   22   24 1
  38   23   41 1
  39   24   25 ar
  40   24   29 ar
  41   25   26 ar
  42   25   42 1
  43   26   27 ar
  44   26   43 1
  45   27   28 ar
  46   27   44 1
  47   28   29 ar
  48   28   45 1
  49   29   46 1

#	End of record

