#	Name: ASD01916516
#	Creating user name:	WinNT
#	Creation time:	15. 06. 2019 20:07

#	Modifying user name:	WinNT
#	Modification time:	15. 06. 2019 20:07

#	Program:	/corina/corina34_cracker 3.40 0067  02.08.2006

@<TRIPOS>MOLECULE
ASD01916516
  32   33    0    0    0
SMALL
NO_CHARGES


@<TRIPOS>ATOM
   1 C1            -0.0294     1.4930     0.1332 C.2     
   2 C2            -0.0103    -0.0109     0.0372 C.3     
   3 C3             1.4264    -0.5136     0.1920 C.3     
   4 C4             1.4451    -1.9825     0.0983 C.1     
   5 C5             1.4599    -3.1540     0.0235 C.1     
   6 O6             1.0005     2.1003     0.3075 O.2     
   7 O7            -1.1901     2.1582     0.0194 O.3     
   8 S8             0.8421    -7.0170    -0.3110 S.3     
   9 C9             2.4758    -6.5778    -0.0684 C.2     
  10 N10            2.5903    -5.2992     0.0307 N.2     
  11 C11            1.4781    -4.5830    -0.0677 C.2     
  12 C12            0.3643    -5.3220    -0.2621 C.2     
  13 C13            3.6227    -7.5515     0.0181 C.3     
  14 C14           -1.1391     3.5120     0.1321 C.ar    
  15 C15           -0.8654     4.2929    -0.9830 C.ar    
  16 C16           -0.8143     5.6692    -0.8651 C.ar    
  17 C17           -1.0348     6.2676     0.3618 C.ar    
  18 C18           -1.3070     5.4918     1.4732 C.ar    
  19 C19           -1.3659     4.1158     1.3597 C.ar    
  20 Cl20          -0.5874     3.5417    -2.5231 Cl      
  21 H21           -0.6303    -0.4333     0.8280 H       
  22 H22           -0.4002    -0.3180    -0.9333 H       
  23 H23            2.0463    -0.0911    -0.5988 H       
  24 H24            1.8162    -0.2064     1.1625 H       
  25 H25           -0.6407    -4.9413    -0.3692 H       
  26 H26            3.2461    -8.5678    -0.0982 H       
  27 H27            4.3414    -7.3377    -0.7730 H       
  28 H28            4.1103    -7.4535     0.9880 H       
  29 H29           -0.6015     6.2774    -1.7318 H       
  30 H30           -0.9941     7.3431     0.4521 H       
  31 H31           -1.4785     5.9619     2.4302 H       
  32 H32           -1.5836     3.5109     2.2274 H       
@<TRIPOS>BOND
   1    1    2 1
   2    1    6 2
   3    1    7 1
   4    2    3 1
   5    2   21 1
   6    2   22 1
   7    3    4 1
   8    3   23 1
   9    3   24 1
  10    4    5 3
  11    5   11 1
  12    7   14 1
  13    8    9 1
  14    8   12 1
  15    9   10 2
  16    9   13 1
  17   10   11 1
  18   11   12 2
  19   12   25 1
  20   13   26 1
  21   13   27 1
  22   13   28 1
  23   14   15 ar
  24   14   19 ar
  25   15   16 ar
  26   15   20 1
  27   16   17 ar
  28   16   29 1
  29   17   18 ar
  30   17   30 1
  31   18   19 ar
  32   18   31 1
  33   19   32 1

#	End of record

