#	Name: ASD04591006
#	Creating user name:	WinNT
#	Creation time:	15. 06. 2019 20:51

#	Modifying user name:	WinNT
#	Modification time:	15. 06. 2019 20:51

#	Program:	/corina/corina34_cracker 3.40 0067  02.08.2006

@<TRIPOS>MOLECULE
ASD04591006
  68   75    0    0    0
SMALL
NO_CHARGES


@<TRIPOS>ATOM
   1 N1            -0.0171     1.3232    -0.0119 N.ar    
   2 C2             0.0017    -0.0035    -0.0051 C.ar    
   3 N3             1.1298    -0.6949    -0.0118 N.ar    
   4 C4             2.3050    -0.0728    -0.0262 C.ar    
   5 C5             2.3189     1.3366    -0.0341 C.ar    
   6 C6             1.1072     2.0202    -0.0262 C.ar    
   7 N7             3.6031    -0.5195    -0.0358 N.pl3   
   8 C8             4.4823     0.5495    -0.0499 C.ar    
   9 C9             3.7312     1.7385    -0.0495 C.ar    
  10 C10            5.8680     0.6418    -0.0633 C.ar    
  11 N11            6.4613     1.8181    -0.0753 N.ar    
  12 C12            5.7850     2.9533    -0.0753 C.ar    
  13 C13            4.4064     2.9585    -0.0621 C.ar    
  14 N14           -1.2019    -0.6887     0.0098 N.pl3   
  15 C15           -2.4019     0.0120     0.1303 C.ar    
  16 N16           -2.3783     1.3196     0.3309 N.ar    
  17 C17           -3.4885     2.0229     0.4509 C.ar    
  18 C18           -4.7291     1.4087     0.3703 C.ar    
  19 C19           -4.7935     0.0321     0.1596 C.ar    
  20 C20           -3.6094    -0.6709     0.0326 C.ar    
  21 N21           -5.9023     2.1615     0.4995 N.3     
  22 C22           -5.5953     3.5824     0.7148 C.3     
  23 C23           -6.9000     4.3806     0.7711 C.3     
  24 N24           -7.7449     3.8574     1.8537 N.3     
  25 C25           -8.0519     2.4365     1.6384 C.3     
  26 C26           -6.7473     1.6383     1.5820 C.3     
  27 C27            4.0018    -1.9292    -0.0312 C.3     
  28 C28            2.7526    -2.8124    -0.0149 C.3     
  29 C29            3.1689    -4.2847    -0.0102 C.3     
  30 C30            3.9904    -4.5864    -1.2651 C.3     
  31 C31            5.2396    -3.7032    -1.2815 C.3     
  32 C32            4.8233    -2.2309    -1.2862 C.3     
  33 C33            4.0129    -4.5720     1.2332 C.3     
  34 C34            6.0837    -3.9905    -0.0381 C.3     
  35 C35            4.8458    -2.2165     1.2121 C.3     
  36 C36            5.2622    -3.6888     1.2169 C.3     
  37 H37            1.0848     3.1000    -0.0323 H       
  38 H38            6.4645    -0.2585    -0.0635 H       
  39 H39            6.3203     3.8912    -0.0851 H       
  40 H40            3.8596     3.8899    -0.0625 H       
  41 H41           -1.2103    -1.6559    -0.0635 H       
  42 H42           -3.4301     3.0889     0.6140 H       
  43 H43           -5.7459    -0.4729     0.0926 H       
  44 H44           -3.6221    -1.7382    -0.1317 H       
  45 H45           -5.0564     3.6996     1.6549 H       
  46 H46           -4.9794     3.9498    -0.1061 H       
  47 H47           -6.6760     5.4305     0.9597 H       
  48 H48           -7.4258     4.2855    -0.1789 H       
  49 H49           -7.3106     4.0013     2.7530 H       
  50 H50           -8.6679     2.0691     2.4592 H       
  51 H51           -8.5909     2.3193     0.6982 H       
  52 H52           -6.9712     0.5883     1.3935 H       
  53 H53           -6.2214     1.7334     2.5321 H       
  54 H54            2.1673    -2.5975     0.8792 H       
  55 H55            2.1512    -2.6077    -0.9007 H       
  56 H56            2.2789    -4.9139     0.0015 H       
  57 H57            4.2870    -5.6353    -1.2618 H       
  58 H58            3.3891    -4.3817    -2.1509 H       
  59 H59            5.8249    -3.9181    -2.1755 H       
  60 H60            4.2220    -2.0262    -2.1720 H       
  61 H61            5.7133    -1.6017    -1.2979 H       
  62 H62            3.4277    -4.3571     2.1273 H       
  63 H63            4.3095    -5.6209     1.2366 H       
  64 H64            6.3803    -5.0394    -0.0347 H       
  65 H65            6.9737    -3.3613    -0.0498 H       
  66 H66            5.7358    -1.5873     1.2005 H       
  67 H67            4.2605    -2.0016     2.1062 H       
  68 H68            5.8635    -3.8935     2.1027 H       
@<TRIPOS>BOND
   1    1    2 ar
   2    1    6 ar
   3    2    3 ar
   4    2   14 1
   5    3    4 ar
   6    4    5 ar
   7    4    7 1
   8    5    6 ar
   9    5    9 1
  10    6   37 1
  11    7    8 1
  12    7   27 1
  13    8    9 ar
  14    8   10 ar
  15    9   13 ar
  16   10   11 ar
  17   10   38 1
  18   11   12 ar
  19   12   13 ar
  20   12   39 1
  21   13   40 1
  22   14   15 1
  23   14   41 1
  24   15   16 ar
  25   15   20 ar
  26   16   17 ar
  27   17   18 ar
  28   17   42 1
  29   18   19 ar
  30   18   21 1
  31   19   20 ar
  32   19   43 1
  33   20   44 1
  34   21   22 1
  35   21   26 1
  36   22   23 1
  37   22   45 1
  38   22   46 1
  39   23   24 1
  40   23   47 1
  41   23   48 1
  42   24   25 1
  43   24   49 1
  44   25   26 1
  45   25   50 1
  46   25   51 1
  47   26   52 1
  48   26   53 1
  49   27   28 1
  50   27   35 1
  51   27   32 1
  52   28   29 1
  53   28   54 1
  54   28   55 1
  55   29   30 1
  56   29   33 1
  57   29   56 1
  58   30   31 1
  59   30   57 1
  60   30   58 1
  61   31   32 1
  62   31   34 1
  63   31   59 1
  64   32   60 1
  65   32   61 1
  66   33   36 1
  67   33   62 1
  68   33   63 1
  69   34   36 1
  70   34   64 1
  71   34   65 1
  72   35   36 1
  73   35   66 1
  74   35   67 1
  75   36   68 1

#	End of record

