#	Name: ASD03090220
#	Creating user name:	WinNT
#	Creation time:	15. 06. 2019 20:28

#	Modifying user name:	WinNT
#	Modification time:	15. 06. 2019 20:28

#	Program:	/corina/corina34_cracker 3.40 0067  02.08.2006

@<TRIPOS>MOLECULE
ASD03090220
  43   45    0    0    0
SMALL
NO_CHARGES


@<TRIPOS>ATOM
   1 N1             0.4487     1.5208     1.4680 N.ar    
   2 C2             0.4102     0.1987     1.4345 C.ar    
   3 C3             1.5440    -0.5361     1.1222 C.ar    
   4 C4             2.7330     0.1414     0.8422 C.ar    
   5 C5             2.7248     1.5407     0.8901 C.ar    
   6 C6             1.5536     2.1944     1.2092 C.ar    
   7 C7             3.9688    -0.6001     0.5043 C.2     
   8 N8             5.7543    -3.4447    -0.5322 N.pl3   
   9 C9             4.8308    -4.4352    -0.8768 C.ar    
  10 C10            3.6132    -4.0840    -1.4457 C.ar    
  11 C11            2.7027    -5.0655    -1.7851 C.ar    
  12 C12            3.0020    -6.3964    -1.5592 C.ar    
  13 C13            4.2133    -6.7496    -0.9926 C.ar    
  14 C14            5.1307    -5.7739    -0.6565 C.ar    
  15 N15            4.0360    -1.8559     0.1105 N.2     
  16 C16            5.3083    -2.1922    -0.1059 C.2     
  17 N17            6.0742    -1.1553     0.1465 N.2     
  18 N18            5.2267    -0.1069     0.5396 N.pl3   
  19 C19            5.6273     1.2498     0.9205 C.3     
  20 C20            5.7297     2.1221    -0.3323 C.3     
  21 O21            6.1204     3.4455     0.0393 O.3     
  22 O22           -0.7520    -0.4455     1.7093 O.3     
  23 C23           -1.8850     0.3662     2.0243 C.3     
  24 C24            4.5349    -8.2014    -0.7478 C.3     
  25 F25            3.4634    -8.9944    -1.1724 F       
  26 F26            5.6857    -8.5510    -1.4625 F       
  27 F27            4.7542    -8.4065     0.6186 F       
  28 H28            1.5084    -1.6152     1.0963 H       
  29 H29            3.6242     2.1006     0.6802 H       
  30 H30            1.5403     3.2736     1.2479 H       
  31 H31            6.7053    -3.6274    -0.5891 H       
  32 H32            3.3786    -3.0446    -1.6220 H       
  33 H33            1.7556    -4.7932    -2.2271 H       
  34 H34            2.2882    -7.1619    -1.8256 H       
  35 H35            6.0765    -6.0503    -0.2144 H       
  36 H36            4.8840     1.6716     1.5972 H       
  37 H37            6.5956     1.2161     1.4199 H       
  38 H38            6.4729     1.7003    -1.0089 H       
  39 H39            4.7614     2.1559    -0.8316 H       
  40 H40            6.2052     4.0546    -0.7069 H       
  41 H41           -2.7457    -0.2724     2.2225 H       
  42 H42           -1.6673     0.9670     2.9074 H       
  43 H43           -2.1062     1.0234     1.1833 H       
@<TRIPOS>BOND
   1    1    2 ar
   2    1    6 ar
   3    2    3 ar
   4    2   22 1
   5    3    4 ar
   6    3   28 1
   7    4    5 ar
   8    4    7 1
   9    5    6 ar
  10    5   29 1
  11    6   30 1
  12    7   15 2
  13    7   18 1
  14    8    9 1
  15    8   16 1
  16    8   31 1
  17    9   10 ar
  18    9   14 ar
  19   10   11 ar
  20   10   32 1
  21   11   12 ar
  22   11   33 1
  23   12   13 ar
  24   12   34 1
  25   13   14 ar
  26   13   24 1
  27   14   35 1
  28   15   16 1
  29   16   17 2
  30   17   18 1
  31   18   19 1
  32   19   20 1
  33   19   36 1
  34   19   37 1
  35   20   21 1
  36   20   38 1
  37   20   39 1
  38   21   40 1
  39   22   23 1
  40   23   41 1
  41   23   42 1
  42   23   43 1
  43   24   25 1
  44   24   26 1
  45   24   27 1

#	End of record

