#	Name: ASD03730098
#	Creating user name:	WinNT
#	Creation time:	15. 06. 2019 20:43

#	Modifying user name:	WinNT
#	Modification time:	15. 06. 2019 20:43

#	Program:	/corina/corina34_cracker 3.40 0067  02.08.2006

@<TRIPOS>MOLECULE
ASD03730098
  49   54    0    0    0
SMALL
NO_CHARGES


@<TRIPOS>ATOM
   1 C1            -0.0187     1.5020     0.0192 C.2     
   2 C2             0.0010    -0.0045    -0.0112 C.3     
   3 O3             1.0236     2.1219     0.0383 O.2     
   4 N4            -1.1946     2.1607     0.0195 N.am    
   5 O5             6.2124     2.8426     2.2257 O.3     
   6 C6             7.6290     2.7820     2.4757 C.3     
   7 O7             7.8328     1.4444     2.9682 O.3     
   8 C8             6.8296     0.6965     2.4213 C.ar    
   9 C9             5.8331     1.5567     1.9659 C.ar    
  10 C10            6.6843    -0.6710     2.2719 C.ar    
  11 C11            5.5455    -1.1974     1.6696 C.ar    
  12 C12            4.5532    -0.3285     1.2261 C.ar    
  13 C13            4.6979     1.0358     1.3681 C.ar    
  14 O14            5.2163    -2.4958     1.4125 O.3     
  15 C15            3.4552    -1.1863     0.6565 C.3     
  16 C16            3.7980    -2.5887     1.1774 C.3     
  17 N17            1.3884    -0.4748    -0.0119 N.am    
  18 C18            2.0939    -0.7394     1.1059 C.2     
  19 C19            3.4142    -1.1406    -0.8422 C.ar    
  20 C20            4.3312    -1.4287    -1.8282 C.ar    
  21 C21            3.9850    -1.2850    -3.1600 C.ar    
  22 C22            2.7162    -0.8506    -3.4983 C.ar    
  23 C23            1.7945    -0.5598    -2.5142 C.ar    
  24 C24            2.1342    -0.7020    -1.1711 C.ar    
  25 O25            1.7052    -0.6370     2.2502 O.2     
  26 C26           -1.2153     3.5562     0.1328 C.ar    
  27 C27           -2.3320     4.1955     0.6584 C.ar    
  28 C28           -2.3493     5.5728     0.7689 C.ar    
  29 C29           -1.2564     6.3149     0.3564 C.ar    
  30 C30           -0.1439     5.6805    -0.1671 C.ar    
  31 C31           -0.1186     4.3033    -0.2742 C.ar    
  32 Cl32          -1.2816     8.0452     0.4954 Cl      
  33 Cl33          -3.7034     3.2649     1.1748 Cl      
  34 H34           -0.5137    -0.3924     0.8679 H       
  35 H35           -0.5024    -0.3564    -0.9116 H       
  36 H36           -2.0265     1.6681    -0.0589 H       
  37 H37            8.1878     2.9396     1.5532 H       
  38 H38            7.9167     3.5154     3.2290 H       
  39 H39            7.4597    -1.3346     2.6250 H       
  40 H40            3.9236     1.6994     1.0124 H       
  41 H41            3.5792    -3.3456     0.4242 H       
  42 H42            3.2648    -2.7983     2.1047 H       
  43 H43            5.3215    -1.7676    -1.5618 H       
  44 H44            4.7037    -1.5117    -3.9336 H       
  45 H45            2.4460    -0.7382    -4.5379 H       
  46 H46            0.8059    -0.2206    -2.7863 H       
  47 H47           -3.2165     6.0705     1.1772 H       
  48 H48            0.7076     6.2621    -0.4882 H       
  49 H49            0.7522     3.8086    -0.6784 H       
@<TRIPOS>BOND
   1    1    2 1
   2    1    3 2
   3    1    4 am
   4    2   17 1
   5    2   34 1
   6    2   35 1
   7    4   26 1
   8    4   36 1
   9    5    6 1
  10    5    9 1
  11    6    7 1
  12    6   37 1
  13    6   38 1
  14    7    8 1
  15    8    9 ar
  16    8   10 ar
  17    9   13 ar
  18   10   11 ar
  19   10   39 1
  20   11   12 ar
  21   11   14 1
  22   12   13 ar
  23   12   15 1
  24   13   40 1
  25   14   16 1
  26   15   16 1
  27   15   18 1
  28   15   19 1
  29   16   41 1
  30   16   42 1
  31   17   18 am
  32   17   24 1
  33   18   25 2
  34   19   20 ar
  35   19   24 ar
  36   20   21 ar
  37   20   43 1
  38   21   22 ar
  39   21   44 1
  40   22   23 ar
  41   22   45 1
  42   23   24 ar
  43   23   46 1
  44   26   27 ar
  45   26   31 ar
  46   27   28 ar
  47   27   33 1
  48   28   29 ar
  49   28   47 1
  50   29   30 ar
  51   29   32 1
  52   30   31 ar
  53   30   48 1
  54   31   49 1

#	End of record

