#	Name: ASD01028526
#	Creating user name:	WinNT
#	Creation time:	15. 06. 2019 18:57

#	Modifying user name:	WinNT
#	Modification time:	15. 06. 2019 18:57

#	Program:	/corina/corina34_cracker 3.40 0067  02.08.2006

@<TRIPOS>MOLECULE
ASD01028526
  43   46    0    0    0
SMALL
NO_CHARGES


@<TRIPOS>ATOM
   1 N1             0.2903     0.9188     0.1215 N.2     
   2 N2             0.0625    -0.4560     0.0326 N.pl3   
   3 C3             1.5171     1.3905     0.1530 C.2     
   4 C4             2.6269     0.5209     0.0976 C.2     
   5 C5             2.4368    -0.8221     0.0104 C.2     
   6 C6             1.1237    -1.3284    -0.0226 C.2     
   7 N7             0.6138    -2.5466    -0.1021 N.2     
   8 N8            -0.6713    -2.4707    -0.0975 N.2     
   9 C9            -1.0508    -1.2196    -0.0176 C.2     
  10 C10           -2.4728    -0.7219     0.0141 C.3     
  11 C11           -2.9471    -0.6471     1.4426 C.ar    
  12 C12           -2.7676     0.5157     2.1691 C.ar    
  13 C13           -3.5659    -1.7394     2.0222 C.ar    
  14 C14           -4.0021    -1.6739     3.3310 C.ar    
  15 C15           -3.8183    -0.5095     4.0651 C.ar    
  16 C16           -3.2007     0.5874     3.4786 C.ar    
  17 N17           -4.2590    -0.4399     5.3913 N.am    
  18 C18           -4.1873    -1.5281     6.1833 C.2     
  19 C19           -4.5630    -1.4266     7.6391 C.3     
  20 O20           -3.8204    -2.5891     5.7242 O.2     
  21 C21            1.7371     2.8547     0.2476 C.ar    
  22 C22            0.6488     3.7234     0.3026 C.ar    
  23 C23            3.0329     3.3660     0.2877 C.ar    
  24 C24            3.2317     4.7289     0.3761 C.ar    
  25 C25            2.1478     5.5868     0.4255 C.ar    
  26 C26            0.8594     5.0845     0.3910 C.ar    
  27 H27            3.6289     0.9230     0.1241 H       
  28 H28            3.2825    -1.4924    -0.0324 H       
  29 H29           -2.5211     0.2692    -0.4371 H       
  30 H30           -3.1102    -1.4070    -0.5449 H       
  31 H31           -2.2879     1.3687     1.7122 H       
  32 H32           -3.7086    -2.6447     1.4507 H       
  33 H33           -4.4860    -2.5272     3.7829 H       
  34 H34           -3.0563     1.4943     4.0469 H       
  35 H35           -4.6161     0.3915     5.7407 H       
  36 H36           -5.6013    -1.1064     7.7250 H       
  37 H37           -4.4425    -2.4002     8.1142 H       
  38 H38           -3.9168    -0.6997     8.1313 H       
  39 H39           -0.3575     3.3322     0.2757 H       
  40 H40            3.8799     2.6970     0.2499 H       
  41 H41            4.2355     5.1262     0.4072 H       
  42 H42            2.3080     6.6526     0.4951 H       
  43 H43            0.0167     5.7589     0.4295 H       
@<TRIPOS>BOND
   1    1    2 1
   2    1    3 2
   3    2    6 1
   4    2    9 1
   5    3    4 1
   6    3   21 1
   7    4    5 2
   8    4   27 1
   9    5    6 1
  10    5   28 1
  11    6    7 2
  12    7    8 1
  13    8    9 2
  14    9   10 1
  15   10   11 1
  16   10   29 1
  17   10   30 1
  18   11   12 ar
  19   11   13 ar
  20   12   16 ar
  21   12   31 1
  22   13   14 ar
  23   13   32 1
  24   14   15 ar
  25   14   33 1
  26   15   16 ar
  27   15   17 1
  28   16   34 1
  29   17   18 am
  30   17   35 1
  31   18   19 1
  32   18   20 2
  33   19   36 1
  34   19   37 1
  35   19   38 1
  36   21   22 ar
  37   21   23 ar
  38   22   26 ar
  39   22   39 1
  40   23   24 ar
  41   23   40 1
  42   24   25 ar
  43   24   41 1
  44   25   26 ar
  45   25   42 1
  46   26   43 1

#	End of record

