#	Name: ASD01814720
#	Creating user name:	WinNT
#	Creation time:	15. 06. 2019 19:32

#	Modifying user name:	WinNT
#	Modification time:	15. 06. 2019 19:32

#	Program:	/corina/corina34_cracker 3.40 0067  02.08.2006

@<TRIPOS>MOLECULE
ASD01814720
  42   44    0    0    0
SMALL
NO_CHARGES


@<TRIPOS>ATOM
   1 C1             0.2107     1.5221     0.1219 C.3     
   2 C2             0.1108    -0.0031     0.0538 C.3     
   3 C3             0.8275    -0.5056    -1.2011 C.3     
   4 C4             0.7665    -0.6131     1.2943 C.3     
   5 N5             0.0741    -0.1452     2.4943 N.2     
   6 C6            -1.1915    -0.3102     2.6561 C.2     
   7 C7            -1.7933     0.1939     3.9114 C.ar    
   8 C8            -1.8147     1.5628     4.1776 C.ar    
   9 C9            -2.3773     2.0266     5.3488 C.ar    
  10 C10           -2.9197     1.1378     6.2601 C.ar    
  11 C11           -2.9025    -0.2210     6.0047 C.ar    
  12 C12           -2.3476    -0.6993     4.8322 C.ar    
  13 F13           -2.3358    -2.0265     4.5802 F       
  14 C14           -2.0854    -0.9631     1.6867 C.ar    
  15 C15           -3.3536    -0.3970     1.4878 C.ar    
  16 C16           -4.2365    -0.9572     0.5936 C.ar    
  17 C17           -5.5957    -0.3390     0.3898 C.3     
  18 C18           -3.8772    -2.0891    -0.1189 C.ar    
  19 C19           -2.6358    -2.6571     0.0658 C.ar    
  20 C20           -1.7272    -2.1038     0.9704 C.ar    
  21 N21           -0.5012    -2.7341     1.1064 N.am    
  22 C22            0.6694    -2.1129     1.2295 C.2     
  23 S23            2.0078    -2.9841     1.3111 S.2     
  24 H24            1.2596     1.8161     0.1602 H       
  25 H25           -0.2564     1.9567    -0.7619 H       
  26 H26           -0.2998     1.8801     1.0159 H       
  27 H27           -0.9381    -0.2971     0.0154 H       
  28 H28            1.8764    -0.2116    -1.1628 H       
  29 H29            0.7563    -1.5922    -1.2497 H       
  30 H30            0.3604    -0.0711    -2.0849 H       
  31 H31            1.8145    -0.3166     1.3364 H       
  32 H32           -1.3914     2.2585     3.4683 H       
  33 H33           -2.3940     3.0866     5.5551 H       
  34 H34           -3.3583     1.5072     7.1753 H       
  35 H35           -3.3269    -0.9095     6.7204 H       
  36 H36           -3.6392     0.4853     2.0412 H       
  37 H37           -5.5418     0.4024    -0.4074 H       
  38 H38           -6.3105    -1.1151     0.1163 H       
  39 H39           -5.9179     0.1428     1.3129 H       
  40 H40           -4.5713    -2.5270    -0.8209 H       
  41 H41           -2.3630    -3.5395    -0.4938 H       
  42 H42           -0.4954    -3.7040     1.1127 H       
@<TRIPOS>BOND
   1    1    2 1
   2    1   24 1
   3    1   25 1
   4    1   26 1
   5    2    3 1
   6    2    4 1
   7    2   27 1
   8    3   28 1
   9    3   29 1
  10    3   30 1
  11    4   22 1
  12    4    5 1
  13    4   31 1
  14    5    6 2
  15    6    7 1
  16    6   14 1
  17    7   12 ar
  18    7    8 ar
  19    8    9 ar
  20    8   32 1
  21    9   10 ar
  22    9   33 1
  23   10   11 ar
  24   10   34 1
  25   11   12 ar
  26   11   35 1
  27   12   13 1
  28   14   20 ar
  29   14   15 ar
  30   15   16 ar
  31   15   36 1
  32   16   17 1
  33   16   18 ar
  34   17   37 1
  35   17   38 1
  36   17   39 1
  37   18   19 ar
  38   18   40 1
  39   19   20 ar
  40   19   41 1
  41   20   21 1
  42   21   22 am
  43   21   42 1
  44   22   23 2

#	End of record

