#	Name: ASD01814781
#	Creating user name:	WinNT
#	Creation time:	15. 06. 2019 19:33

#	Modifying user name:	WinNT
#	Modification time:	15. 06. 2019 19:33

#	Program:	/corina/corina34_cracker 3.40 0067  02.08.2006

@<TRIPOS>MOLECULE
ASD01814781
  63   66    0    0    0
SMALL
NO_CHARGES


@<TRIPOS>ATOM
   1 C1             0.1527     0.6508     0.1654 C.2     
   2 C2             0.3511    -0.7185     0.3973 C.2     
   3 C3             1.6198    -1.2062     0.4953 C.2     
   4 C4             2.7101    -0.3274     0.3620 C.2     
   5 N5             2.4873     1.0061     0.1362 N.am    
   6 C6             1.2107     1.4809     0.0399 C.2     
   7 C7             4.0136    -0.8225     0.4617 C.2     
   8 C8             5.0853     0.0366     0.3315 C.2     
   9 C9             4.8449     1.3967     0.1005 C.2     
  10 C10            3.5218     1.8603     0.0062 C.2     
  11 O11            3.3077     3.0454    -0.1956 O.2     
  12 C12            5.9738     2.3370    -0.0425 C.2     
  13 O13            6.0855     3.3973     0.7995 O.3     
  14 C14            6.8846     2.1456    -0.9991 C.2     
  15 C15            4.2475    -2.2902     0.7112 C.3     
  16 N16            4.4600    -2.9768    -0.5699 N.3     
  17 C17            4.9233    -4.3541    -0.3583 C.3     
  18 C18            4.9941    -5.0822    -1.7025 C.3     
  19 C19            5.9569    -4.3369    -2.6310 C.3     
  20 C20            5.4784    -2.8918    -2.7962 C.3     
  21 C21            5.3936    -2.2273    -1.4202 C.3     
  22 C22            8.3078    -3.6105    -2.9384 C.ar    
  23 C23            8.5003    -2.2501    -2.7867 C.ar    
  24 C24            9.3729    -1.5781    -3.6221 C.ar    
  25 C25           10.0534    -2.2666    -4.6089 C.ar    
  26 C26            9.8617    -3.6272    -4.7600 C.ar    
  27 C27            8.9880    -4.2989    -3.9256 C.ar    
  28 C28            7.3612    -4.3442    -2.0238 C.3     
  29 C29            5.9851    -5.0150    -3.9765 C.2     
  30 O30            5.3052    -5.9941    -4.1740 O.2     
  31 O31            6.7655    -4.5312    -4.9556 O.3     
  32 C32            6.7425    -5.2350    -6.2254 C.3     
  33 C33            7.6873    -4.5425    -7.2096 C.3     
  34 H34           -0.8505     1.0422     0.0824 H       
  35 H35           -0.4956    -1.3814     0.4979 H       
  36 H36            1.7868    -2.2581     0.6740 H       
  37 H37            1.0450     2.5331    -0.1382 H       
  38 H38            6.0965    -0.3350     0.4072 H       
  39 H39            6.8560     3.9561     0.6283 H       
  40 H40            6.7521     1.3524    -1.7200 H       
  41 H41            7.7542     2.7839    -1.0522 H       
  42 H42            5.1280    -2.4158     1.3412 H       
  43 H43            3.3784    -2.7166     1.2122 H       
  44 H44            5.9128    -4.3382     0.0987 H       
  45 H45            4.2276    -4.8742     0.3003 H       
  46 H46            5.3529    -6.0996    -1.5469 H       
  47 H47            4.0022    -5.1105    -2.1537 H       
  48 H48            6.1832    -2.3444    -3.4219 H       
  49 H49            4.4941    -2.8857    -3.2645 H       
  50 H50            5.0394    -1.2026    -1.5330 H       
  51 H51            6.3808    -2.2214    -0.9583 H       
  52 H52            7.9687    -1.7121    -2.0157 H       
  53 H53            9.5228    -0.5150    -3.5040 H       
  54 H54           10.7347    -1.7414    -5.2620 H       
  55 H55           10.3928    -4.1650    -5.5314 H       
  56 H56            8.8376    -5.3618    -4.0441 H       
  57 H57            7.3395    -3.8510    -1.0520 H       
  58 H58            7.6988    -5.3734    -1.9013 H       
  59 H59            7.0652    -6.2653    -6.0757 H       
  60 H60            5.7293    -5.2265    -6.6273 H       
  61 H61            7.3645    -3.5122    -7.3593 H       
  62 H62            8.7005    -4.5511    -6.8078 H       
  63 H63            7.6700    -5.0709    -8.1629 H       
@<TRIPOS>BOND
   1    1    2 1
   2    1    6 2
   3    1   34 1
   4    2    3 2
   5    2   35 1
   6    3    4 1
   7    3   36 1
   8    4    5 1
   9    4    7 2
  10    5    6 1
  11    5   10 am
  12    6   37 1
  13    7   15 1
  14    7    8 1
  15    8    9 2
  16    8   38 1
  17    9   10 1
  18    9   12 1
  19   10   11 2
  20   12   13 1
  21   12   14 2
  22   13   39 1
  23   14   40 1
  24   14   41 1
  25   15   16 1
  26   15   42 1
  27   15   43 1
  28   16   17 1
  29   16   21 1
  30   17   18 1
  31   17   44 1
  32   17   45 1
  33   18   19 1
  34   18   46 1
  35   18   47 1
  36   19   20 1
  37   19   28 1
  38   19   29 1
  39   20   21 1
  40   20   48 1
  41   20   49 1
  42   21   50 1
  43   21   51 1
  44   22   23 ar
  45   22   27 ar
  46   22   28 1
  47   23   24 ar
  48   23   52 1
  49   24   25 ar
  50   24   53 1
  51   25   26 ar
  52   25   54 1
  53   26   27 ar
  54   26   55 1
  55   27   56 1
  56   28   57 1
  57   28   58 1
  58   29   30 2
  59   29   31 1
  60   31   32 1
  61   32   33 1
  62   32   59 1
  63   32   60 1
  64   33   61 1
  65   33   62 1
  66   33   63 1

#	End of record

