#	Name: ASD01812830
#	Creating user name:	WinNT
#	Creation time:	15. 06. 2019 19:29

#	Modifying user name:	WinNT
#	Modification time:	15. 06. 2019 19:29

#	Program:	/corina/corina34_cracker 3.40 0067  02.08.2006

@<TRIPOS>MOLECULE
ASD01812830
  62   67    0    0    0
SMALL
NO_CHARGES


@<TRIPOS>ATOM
   1 C1            -0.0166     1.3764     0.0096 C.ar    
   2 C2             0.0021    -0.0041     0.0020 C.ar    
   3 C3             1.2089    -0.6872    -0.0127 C.ar    
   4 C4             2.3941     0.0075    -0.0203 C.ar    
   5 C5             2.3941     1.4057    -0.0132 C.ar    
   6 C6             1.1719     2.0915     0.0021 C.ar    
   7 C7             3.8413    -0.4177    -0.0364 C.3     
   8 N8             4.6313     0.8189    -0.0378 N.am    
   9 C9             3.7915     1.8684    -0.0244 C.2     
  10 C10            6.0942     0.8968    -0.0511 C.3     
  11 C11            6.5825     0.9304    -1.4764 C.ar    
  12 C12            6.7421     2.1434    -2.1218 C.ar    
  13 C13            7.1890     2.1798    -3.4272 C.ar    
  14 C14            7.4800     0.9922    -4.0945 C.ar    
  15 C15            7.3179    -0.2266    -3.4397 C.ar    
  16 C16            6.8750    -0.2515    -2.1327 C.ar    
  17 O17            1.1515     3.4479     0.0091 O.3     
  18 O18            4.1370     3.0341    -0.0215 O.2     
  19 C19            7.9606     1.0253    -5.4989 C.2     
  20 C20           -0.1314     4.0773     0.0243 C.3     
  21 C21            0.0461     5.5969     0.0302 C.3     
  22 C22            7.3905     1.7130    -6.5301 C.2     
  23 C23            9.0915     0.3573    -6.0076 C.2     
  24 N24            9.1857     0.6312    -7.2818 N.2     
  25 N25            8.1324     1.4843    -7.6325 N.pl3   
  26 C26           10.0293    -0.5205    -5.2195 C.3     
  27 C27            7.8775     2.0302    -8.9679 C.3     
  28 C28           -1.2680     6.4225     0.1694 C.3     
  29 C29           -0.8699     7.8022    -0.4142 C.3     
  30 C30            0.6215     7.5905    -0.8131 C.3     
  31 C31            1.4055     7.5461     0.5328 C.3     
  32 C32            1.0006     6.1537     1.1289 C.3     
  33 O33            0.6185     6.1742    -1.1889 O.3     
  34 H34           -0.9604     1.9015     0.0169 H       
  35 H35           -0.9272    -0.5544     0.0079 H       
  36 H36            1.2170    -1.7672    -0.0179 H       
  37 H37            4.0688    -1.0067     0.8521 H       
  38 H38            4.0515    -0.9977    -0.9350 H       
  39 H39            6.4145     1.8024     0.4641 H       
  40 H40            6.5091     0.0250     0.4546 H       
  41 H41            6.5162     3.0636    -1.6034 H       
  42 H42            7.3126     3.1274    -3.9304 H       
  43 H43            7.5421    -1.1503    -3.9526 H       
  44 H44            6.7526    -1.1957    -1.6229 H       
  45 H45           -0.6922     3.7805    -0.8620 H       
  46 H46           -0.6756     3.7715     0.9178 H       
  47 H47            6.5051     2.3289    -6.4738 H       
  48 H48            9.6736    -1.5504    -5.2485 H       
  49 H49           11.0274    -0.4685    -5.6546 H       
  50 H50           10.0654    -0.1775    -4.1855 H       
  51 H51            8.3968     2.9823    -9.0764 H       
  52 H52            8.2395     1.3308    -9.7215 H       
  53 H53            6.8063     2.1835    -9.0993 H       
  54 H54           -2.0703     5.9728    -0.4156 H       
  55 H55           -1.5570     6.5149     1.2163 H       
  56 H56           -1.4738     8.0399    -1.2899 H       
  57 H57           -0.9604     8.5820     0.3419 H       
  58 H58            1.0095     8.2862    -1.5572 H       
  59 H59            2.4799     7.5950     0.3557 H       
  60 H60            1.0849     8.3518     1.1932 H       
  61 H61            0.4721     6.2745     2.0745 H       
  62 H62            1.8689     5.5060     1.2505 H       
@<TRIPOS>BOND
   1    1    2 ar
   2    1    6 ar
   3    1   34 1
   4    2    3 ar
   5    2   35 1
   6    3    4 ar
   7    3   36 1
   8    4    7 1
   9    4    5 ar
  10    5    6 ar
  11    5    9 1
  12    6   17 1
  13    7    8 1
  14    7   37 1
  15    7   38 1
  16    8    9 am
  17    8   10 1
  18    9   18 2
  19   10   11 1
  20   10   39 1
  21   10   40 1
  22   11   12 ar
  23   11   16 ar
  24   12   13 ar
  25   12   41 1
  26   13   14 ar
  27   13   42 1
  28   14   15 ar
  29   14   19 1
  30   15   16 ar
  31   15   43 1
  32   16   44 1
  33   17   20 1
  34   19   23 1
  35   19   22 2
  36   20   21 1
  37   20   45 1
  38   20   46 1
  39   21   28 1
  40   21   32 1
  41   21   33 1
  42   22   25 1
  43   22   47 1
  44   23   24 2
  45   23   26 1
  46   24   25 1
  47   25   27 1
  48   26   48 1
  49   26   49 1
  50   26   50 1
  51   27   51 1
  52   27   52 1
  53   27   53 1
  54   28   29 1
  55   28   54 1
  56   28   55 1
  57   29   30 1
  58   29   56 1
  59   29   57 1
  60   30   31 1
  61   30   33 1
  62   30   58 1
  63   31   32 1
  64   31   59 1
  65   31   60 1
  66   32   61 1
  67   32   62 1

#	End of record

