#	Name: ASD01903120
#	Creating user name:	WinNT
#	Creation time:	15. 06. 2019 19:54

#	Modifying user name:	WinNT
#	Modification time:	15. 06. 2019 19:54

#	Program:	/corina/corina34_cracker 3.40 0067  02.08.2006

@<TRIPOS>MOLECULE
ASD01903120
  42   45    0    0    0
SMALL
NO_CHARGES


@<TRIPOS>ATOM
   1 N1             0.0096     1.3988     0.0210 N.am    
   2 C2             0.0219    -0.0039     0.0105 C.ar    
   3 C3             0.2652    -0.7046     1.1837 C.ar    
   4 C4             0.2774    -2.0852     1.1738 C.ar    
   5 C5             0.0462    -2.7736    -0.0101 C.ar    
   6 C6            -0.1979    -2.0730    -1.1846 C.ar    
   7 C7            -0.2153    -0.6921    -1.1735 C.ar    
   8 Cl8           -0.5209     0.1841    -2.6407 Cl      
   9 N9             0.0596    -4.1728    -0.0199 N.am    
  10 C10           -0.4136    -4.8586     1.0394 C.2     
  11 C11           -0.4953    -6.3368     0.9882 C.ar    
  12 N12           -0.1012    -6.9802    -0.1038 N.ar    
  13 C13           -0.1569    -8.2915    -0.1899 C.ar    
  14 C14           -0.6328    -9.0543     0.8643 C.ar    
  15 C15           -1.0550    -8.4227     2.0240 C.ar    
  16 C16           -0.9800    -7.0405     2.0887 C.ar    
  17 O17           -0.7731    -4.2644     2.0367 O.2     
  18 C18            1.1595     2.0486    -0.2069 C.2     
  19 C19            1.2418     3.5199    -0.2155 C.ar    
  20 C20            0.0900     4.2770     0.0203 C.ar    
  21 C21           -1.2031     3.5391     0.2759 C.3     
  22 C22           -1.1560     2.0267     0.2536 C.2     
  23 O23           -2.1644     1.3835     0.4520 O.2     
  24 O24            2.1680     1.4028    -0.4128 O.2     
  25 C25            2.4525     4.1704    -0.4551 C.ar    
  26 C26            2.4980     5.5497    -0.4564 C.ar    
  27 C27            1.3517     6.2887    -0.2219 C.ar    
  28 C28            0.1453     5.6498     0.0165 C.ar    
  29 H29            0.4455    -0.1697     2.1044 H       
  30 H30            0.4672    -2.6299     2.0868 H       
  31 H31           -0.3777    -2.6081    -2.1053 H       
  32 H32            0.4093    -4.6491    -0.7891 H       
  33 H33            0.1724    -8.7803    -1.0949 H       
  34 H34           -0.6748   -10.1304     0.7833 H       
  35 H35           -1.4299    -8.9952     2.8595 H       
  36 H36           -1.2999    -6.5156     2.9768 H       
  37 H37           -1.5788     3.8502     1.2507 H       
  38 H38           -1.9255     3.8600    -0.4746 H       
  39 H39            3.3495     3.5975    -0.6382 H       
  40 H40            3.4341     6.0555    -0.6413 H       
  41 H41            1.3974     7.3677    -0.2249 H       
  42 H42           -0.7479     6.2288     0.1989 H       
@<TRIPOS>BOND
   1    1    2 1
   2    1   18 am
   3    1   22 am
   4    2    3 ar
   5    2    7 ar
   6    3    4 ar
   7    3   29 1
   8    4    5 ar
   9    4   30 1
  10    5    6 ar
  11    5    9 1
  12    6    7 ar
  13    6   31 1
  14    7    8 1
  15    9   10 am
  16    9   32 1
  17   10   11 1
  18   10   17 2
  19   11   12 ar
  20   11   16 ar
  21   12   13 ar
  22   13   14 ar
  23   13   33 1
  24   14   15 ar
  25   14   34 1
  26   15   16 ar
  27   15   35 1
  28   16   36 1
  29   18   19 1
  30   18   24 2
  31   19   20 ar
  32   19   25 ar
  33   20   21 1
  34   20   28 ar
  35   21   22 1
  36   21   37 1
  37   21   38 1
  38   22   23 2
  39   25   26 ar
  40   25   39 1
  41   26   27 ar
  42   26   40 1
  43   27   28 ar
  44   27   41 1
  45   28   42 1

#	End of record

