#	Name: ASD04220046
#	Creating user name:	WinNT
#	Creation time:	15. 06. 2019 20:48

#	Modifying user name:	WinNT
#	Modification time:	15. 06. 2019 20:48

#	Program:	/corina/corina34_cracker 3.40 0067  02.08.2006

@<TRIPOS>MOLECULE
ASD04220046
  22   22    0    0    0
SMALL
NO_CHARGES


@<TRIPOS>ATOM
   1 C1            -0.0184     1.5028     0.0103 C.3     
   2 C2             0.0021    -0.0041     0.0020 C.2     
   3 N3             0.0216    -0.7398     1.0494 N.2     
   4 C4             0.0375    -2.0774     0.8857 C.ar    
   5 C5             0.0298    -2.4580    -0.4603 C.ar    
   6 S6            -0.0051    -0.9992    -1.4475 S.3     
   7 C7             0.0596    -3.0889     1.8695 C.ar    
   8 C8             0.0735    -4.4023     1.5133 C.ar    
   9 C9             0.0657    -4.7756     0.1724 C.ar    
  10 C10            0.0437    -3.8064    -0.8114 C.ar    
  11 O11            0.0802    -6.0917    -0.1683 O.3     
  12 S12           -1.3034    -6.7097    -0.3102 S.o2    
  13 O13           -1.1200    -8.1527    -0.3135 O.co2   
  14 O14           -2.0825    -6.2610     0.8335 O.co2   
  15 O15           -1.8518    -6.2262    -1.5678 O.co2   
  16 H16            1.0042     1.8801     0.0026 H       
  17 H17           -0.5455     1.8639    -0.8728 H       
  18 H18           -0.5286     1.8543     0.9071 H       
  19 H19            0.0659    -2.8182     2.9150 H       
  20 H20            0.0910    -5.1633     2.2794 H       
  21 H21            0.0374    -4.0936    -1.8525 H       
  22 Na22           6.0042     6.8801     7.9150 Du      
@<TRIPOS>BOND
   1    1    2 1
   2    1   16 1
   3    1   17 1
   4    1   18 1
   5    2    3 2
   6    2    6 1
   7    3    4 1
   8    4    5 ar
   9    4    7 ar
  10    5    6 1
  11    5   10 ar
  12    7    8 ar
  13    7   19 1
  14    8    9 ar
  15    8   20 1
  16    9   10 ar
  17    9   11 1
  18   10   21 1
  19   11   12 1
  20   12   13 ar
  21   12   14 ar
  22   12   15 ar

#	End of record

