#	Name: ASD00431195
#	Creating user name:	WinNT
#	Creation time:	15. 06. 2019 18:35

#	Modifying user name:	WinNT
#	Modification time:	15. 06. 2019 18:35

#	Program:	/corina/corina34_cracker 3.40 0067  02.08.2006

@<TRIPOS>MOLECULE
ASD00431195
  50   53    0    0    0
SMALL
NO_CHARGES


@<TRIPOS>ATOM
   1 C1            -0.3768     1.6948    -0.6369 C.2     
   2 C2            -0.5783     0.2417    -0.9820 C.3     
   3 O3             0.7293     2.1027    -0.3522 O.2     
   4 N4            -1.4247     2.5422    -0.6501 N.am    
   5 C5            -1.2288     3.9547    -0.3146 C.3     
   6 C6            -0.7835     4.7184    -1.5633 C.3     
   7 O7            -3.7524     4.2884    -0.2838 O.3     
   8 N8            -4.6025     4.8967     0.3237 N.2     
   9 C9            -4.0767     5.6264     1.2801 C.2     
  10 C10           -2.6704     5.4031     1.2182 C.2     
  11 C11           -2.5236     4.5345     0.1937 C.2     
  12 S12           -4.0645     7.4724     3.5027 S.3     
  13 C13           -5.6068     8.0453     3.9668 C.2     
  14 N14           -6.5256     7.5283     3.2105 N.2     
  15 C15           -6.1307     6.6987     2.2698 C.2     
  16 C16           -4.7963     6.5016     2.2275 C.2     
  17 O17           -5.8368     8.9143     4.9797 O.3     
  18 C18           -7.1284     9.1950     5.2990 C.ar    
  19 C19           -7.8815     8.2748     6.0143 C.ar    
  20 C20           -9.1937     8.5596     6.3395 C.ar    
  21 C21           -9.7588     9.7682     5.9498 C.ar    
  22 C22           -9.0042    10.6876     5.2343 C.ar    
  23 C23           -7.6906    10.4033     4.9146 C.ar    
  24 N24          -11.0884    10.0578     6.2782 N.pl3   
  25 C25          -11.6836    11.3318     5.8673 C.3     
  26 C26          -13.1345    11.3957     6.3486 C.3     
  27 C27          -13.8980    12.7016     6.1196 C.3     
  28 C28          -14.2301    11.4645     5.2828 C.3     
  29 Cl29         -10.1363     7.4084     7.2338 Cl      
  30 H30           -0.8041    -0.3192    -0.0751 H       
  31 H31           -1.4068     0.1465    -1.6839 H       
  32 H32            0.3302    -0.1531    -1.4367 H       
  33 H33           -2.3087     2.2168    -0.8817 H       
  34 H34           -0.4638     4.0422     0.4569 H       
  35 H35           -0.6377     5.7694    -1.3137 H       
  36 H36            0.1530     4.2991    -1.9310 H       
  37 H37           -1.5485     4.6310    -2.3349 H       
  38 H38           -1.9007     5.8294     1.8446 H       
  39 H39           -6.8160     6.2157     1.5891 H       
  40 H40           -7.4419     7.3357     6.3165 H       
  41 H41           -9.4426    11.6269     4.9312 H       
  42 H42           -7.1023    11.1205     4.3615 H       
  43 H43          -11.6156     9.4150     6.7779 H       
  44 H44          -11.1189    12.1548     6.3053 H       
  45 H45          -11.6576    11.4112     4.7805 H       
  46 H46          -13.3525    10.8384     7.2597 H       
  47 H47          -14.6186    13.0033     6.8797 H       
  48 H48          -13.3666    13.5153     5.6259 H       
  49 H49          -13.9172    11.4643     4.2387 H       
  50 H50          -15.1691    10.9523     5.4925 H       
@<TRIPOS>BOND
   1    1    2 1
   2    1    3 2
   3    1    4 am
   4    2   30 1
   5    2   31 1
   6    2   32 1
   7    4    5 1
   8    4   33 1
   9    5    6 1
  10    5   11 1
  11    5   34 1
  12    6   35 1
  13    6   36 1
  14    6   37 1
  15    7    8 1
  16    7   11 1
  17    8    9 2
  18    9   10 1
  19    9   16 1
  20   10   11 2
  21   10   38 1
  22   12   13 1
  23   12   16 1
  24   13   14 2
  25   13   17 1
  26   14   15 1
  27   15   16 2
  28   15   39 1
  29   17   18 1
  30   18   19 ar
  31   18   23 ar
  32   19   20 ar
  33   19   40 1
  34   20   21 ar
  35   20   29 1
  36   21   22 ar
  37   21   24 1
  38   22   23 ar
  39   22   41 1
  40   23   42 1
  41   24   25 1
  42   24   43 1
  43   25   26 1
  44   25   44 1
  45   25   45 1
  46   26   27 1
  47   26   28 1
  48   26   46 1
  49   27   28 1
  50   27   47 1
  51   27   48 1
  52   28   49 1
  53   28   50 1

#	End of record

