#	Name: ASD01900718
#	Creating user name:	WinNT
#	Creation time:	15. 06. 2019 19:52

#	Modifying user name:	WinNT
#	Modification time:	15. 06. 2019 19:52

#	Program:	/corina/corina34_cracker 3.40 0067  02.08.2006

@<TRIPOS>MOLECULE
ASD01900718
  62   66    0    0    0
SMALL
NO_CHARGES


@<TRIPOS>ATOM
   1 C1            -0.1854     1.4278    -0.3243 C.ar    
   2 C2            -0.1370     0.0502    -0.1510 C.ar    
   3 C3            -1.2987    -0.6925    -0.0934 C.ar    
   4 C4            -2.5321    -0.0653    -0.2087 C.ar    
   5 C5            -2.5786     1.3239    -0.3874 C.ar    
   6 O6            -3.6752    -0.7824    -0.1423 O.3     
   7 C7            -4.8540    -0.2721    -0.5395 C.2     
   8 C8            -5.0492     1.0564    -0.7375 C.2     
   9 C9            -3.9109     1.9666    -0.5213 C.2     
  10 C10           -5.9797    -1.1926    -0.7695 C.2     
  11 N11           -7.1810    -0.7088    -1.1704 N.2     
  12 C12           -8.1992    -1.4860    -1.3843 C.2     
  13 N13           -8.1123    -2.8406    -1.2154 N.pl3   
  14 C14           -6.9138    -3.3993    -0.8075 C.2     
  15 C15           -5.8111    -2.5543    -0.5822 C.2     
  16 C16           -1.4083     2.0693    -0.4371 C.ar    
  17 C17           -9.0176    -3.8458    -1.3723 C.2     
  18 C18           -8.4228    -5.0267    -1.0741 C.2     
  19 C19           -7.0968    -4.7664    -0.7158 C.2     
  20 O20            0.9671     2.1472    -0.3776 O.3     
  21 C21            2.1914     1.4216    -0.2484 C.3     
  22 C22            3.3709     2.3925    -0.3322 C.3     
  23 N23            3.3506     3.2892     0.8312 N.3     
  24 C24            3.1817     2.5309     2.0773 C.3     
  25 C25            2.3085     4.3138     0.6877 C.3     
  26 C26            2.4114     5.3132     1.8421 C.3     
  27 C27            2.2434     4.5702     3.1704 C.3     
  28 C28            3.3107     3.4770     3.2732 C.3     
  29 N29            2.3995     5.5149     4.2845 N.3     
  30 C30            2.1275     4.8608     5.5714 C.3     
  31 C31            3.7365     6.1234     4.2754 C.3     
  32 N32           -4.0651     3.2675    -0.4508 N.2     
  33 O33           -2.9693     4.0922    -0.0985 O.3     
  34 H34            0.8190    -0.4442    -0.0608 H       
  35 H35           -1.2484    -1.7629     0.0411 H       
  36 H36           -6.0123     1.4359    -1.0454 H       
  37 H37           -9.1360    -1.0529    -1.7024 H       
  38 H38           -4.8608    -2.9564    -0.2636 H       
  39 H39           -1.4506     3.1400    -0.5716 H       
  40 H40          -10.0442    -3.7220    -1.6839 H       
  41 H41           -8.8916    -5.9991    -1.1075 H       
  42 H42           -6.3559    -5.4954    -0.4226 H       
  43 H43            2.2102     0.9091     0.7134 H       
  44 H44            2.2660     0.6890    -1.0520 H       
  45 H45            4.3045     1.8300    -0.3411 H       
  46 H46            3.2927     2.9812    -1.2462 H       
  47 H47            2.1966     2.0644     2.0879 H       
  48 H48            3.9493     1.7596     2.1400 H       
  49 H49            2.4419     4.8374    -0.2589 H       
  50 H50            1.3275     3.8389     0.7048 H       
  51 H51            3.3871     5.7985     1.8175 H       
  52 H52            1.6279     6.0646     1.7439 H       
  53 H53            1.2529     4.1172     3.2117 H       
  54 H54            3.1697     2.9166     4.1974 H       
  55 H55            4.3005     3.9334     3.2711 H       
  56 H56            2.8243     4.0347     5.7135 H       
  57 H57            2.2502     5.5826     6.3789 H       
  58 H58            1.1063     4.4798     5.5767 H       
  59 H59            3.8849     6.6603     3.3385 H       
  60 H60            3.8250     6.8185     5.1104 H       
  61 H61            4.4915     5.3431     4.3705 H       
  62 H62           -3.1795     5.0358    -0.0727 H       
@<TRIPOS>BOND
   1    1    2 ar
   2    1   20 1
   3    1   16 ar
   4    2    3 ar
   5    2   34 1
   6    3    4 ar
   7    3   35 1
   8    4    5 ar
   9    4    6 1
  10    5   16 ar
  11    5    9 1
  12    6    7 1
  13    7    8 2
  14    7   10 1
  15    8    9 1
  16    8   36 1
  17    9   32 2
  18   10   11 1
  19   10   15 2
  20   11   12 2
  21   12   13 1
  22   12   37 1
  23   13   14 1
  24   13   17 1
  25   14   15 1
  26   14   19 2
  27   15   38 1
  28   16   39 1
  29   17   18 2
  30   17   40 1
  31   18   19 1
  32   18   41 1
  33   19   42 1
  34   20   21 1
  35   21   22 1
  36   21   43 1
  37   21   44 1
  38   22   23 1
  39   22   45 1
  40   22   46 1
  41   23   25 1
  42   23   24 1
  43   24   28 1
  44   24   47 1
  45   24   48 1
  46   25   26 1
  47   25   49 1
  48   25   50 1
  49   26   27 1
  50   26   51 1
  51   26   52 1
  52   27   28 1
  53   27   29 1
  54   27   53 1
  55   28   54 1
  56   28   55 1
  57   29   30 1
  58   29   31 1
  59   30   56 1
  60   30   57 1
  61   30   58 1
  62   31   59 1
  63   31   60 1
  64   31   61 1
  65   32   33 1
  66   33   62 1

#	End of record

