#	Name: ASD03320116
#	Creating user name:	WinNT
#	Creation time:	15. 06. 2019 20:36

#	Modifying user name:	WinNT
#	Modification time:	15. 06. 2019 20:36

#	Program:	/corina/corina34_cracker 3.40 0067  02.08.2006

@<TRIPOS>MOLECULE
ASD03320116
  51   54    0    0    0
SMALL
NO_CHARGES


@<TRIPOS>ATOM
   1 C1            -0.0181     1.4708     0.0148 C.2     
   2 C2             0.0014    -0.0045     0.0118 C.ar    
   3 C3             1.2192    -0.6978     0.0014 C.ar    
   4 C4             1.1850    -2.0893    -0.0012 C.ar    
   5 C5            -0.0614    -2.7401     0.0068 C.ar    
   6 N6            -1.1882    -2.0440     0.0162 N.ar    
   7 C7            -1.1932    -0.7273     0.0251 C.ar    
   8 O8             1.0268     2.0927     0.0082 O.2     
   9 N9            -1.1942     2.1291     0.0193 N.am    
  10 N10            2.6867    -4.0139     0.6886 N.pl3   
  11 N11            3.9924    -4.4240     0.3906 N.2     
  12 C12            4.5143    -3.5696    -0.4525 C.2     
  13 C13            3.5685    -2.5818    -0.7277 C.2     
  14 C14            2.4404    -2.8713    -0.0125 C.2     
  15 C15           -1.2149     3.5229     0.1325 C.ar    
  16 C16           -2.1829     4.2612    -0.5361 C.ar    
  17 C17           -2.2005     5.6374    -0.4222 C.ar    
  18 C18           -1.2555     6.2805     0.3561 C.ar    
  19 C19           -0.2901     5.5485     1.0227 C.ar    
  20 C20           -0.2710     4.1714     0.9183 C.ar    
  21 C21           -1.2775     7.7824     0.4777 C.3     
  22 C22           -2.1561     8.1853     1.6637 C.3     
  23 F23            0.0242     8.2530     0.6806 F       
  24 F24           -1.7964     8.3378    -0.6969 F       
  25 F25           -1.6373     7.6299     2.8383 F       
  26 F26           -2.1766     9.5796     1.7766 F       
  27 F27           -3.4579     7.7147     1.4608 F       
  28 N28           -0.1114    -4.1218     0.0045 N.3     
  29 C29           -1.5061    -4.6001     0.0139 C.3     
  30 C30           -1.6855    -5.5106    -1.2191 C.3     
  31 C31           -0.2336    -5.9517    -1.5421 C.3     
  32 C32            0.5677    -4.6745    -1.1868 C.3     
  33 O33           -2.4976    -6.6417    -0.8980 O.3     
  34 H34            2.1595    -0.1665    -0.0049 H       
  35 H35           -2.1349    -0.1988     0.0381 H       
  36 H36           -2.0262     1.6362    -0.0560 H       
  37 H37            2.0674    -4.4645     1.2839 H       
  38 H38            5.5109    -3.6205    -0.8656 H       
  39 H39            3.7038    -1.7381    -1.3882 H       
  40 H40           -2.9207     3.7596    -1.1446 H       
  41 H41           -2.9530     6.2121    -0.9418 H       
  42 H42            0.4469     6.0538     1.6292 H       
  43 H43            0.4801     3.5999     1.4433 H       
  44 H44           -1.6974    -5.1675     0.9248 H       
  45 H45           -2.1891    -3.7529    -0.0482 H       
  46 H46           -2.1129    -4.9519    -2.0518 H       
  47 H47            0.0687    -6.7897    -0.9141 H       
  48 H48           -0.1264    -6.1987    -2.5983 H       
  49 H49            0.5298    -3.9614    -2.0102 H       
  50 H50            1.6012    -4.9284    -0.9508 H       
  51 H51           -2.6412    -7.2459    -1.6393 H       
@<TRIPOS>BOND
   1    1    2 1
   2    1    8 2
   3    1    9 am
   4    2    3 ar
   5    2    7 ar
   6    3    4 ar
   7    3   34 1
   8    4    5 ar
   9    4   14 1
  10    5    6 ar
  11    5   28 1
  12    6    7 ar
  13    7   35 1
  14    9   15 1
  15    9   36 1
  16   10   11 1
  17   10   14 1
  18   10   37 1
  19   11   12 2
  20   12   13 1
  21   12   38 1
  22   13   14 2
  23   13   39 1
  24   15   16 ar
  25   15   20 ar
  26   16   17 ar
  27   16   40 1
  28   17   18 ar
  29   17   41 1
  30   18   19 ar
  31   18   21 1
  32   19   20 ar
  33   19   42 1
  34   20   43 1
  35   21   22 1
  36   21   23 1
  37   21   24 1
  38   22   25 1
  39   22   26 1
  40   22   27 1
  41   28   29 1
  42   28   32 1
  43   29   30 1
  44   29   44 1
  45   29   45 1
  46   30   31 1
  47   30   33 1
  48   30   46 1
  49   31   32 1
  50   31   47 1
  51   31   48 1
  52   32   49 1
  53   32   50 1
  54   33   51 1

#	End of record

