#	Name: ASD01411193
#	Creating user name:	WinNT
#	Creation time:	15. 06. 2019 19:19

#	Modifying user name:	WinNT
#	Modification time:	15. 06. 2019 19:19

#	Program:	/corina/corina34_cracker 3.40 0067  02.08.2006

@<TRIPOS>MOLECULE
ASD01411193
  73   75    0    0    0
SMALL
NO_CHARGES


@<TRIPOS>ATOM
   1 C1            -1.5444     0.8837    -0.3484 C.ar    
   2 C2            -1.1065    -0.4124    -0.2393 C.ar    
   3 C3             0.2483    -0.7038    -0.0941 C.ar    
   4 C4             1.1657     0.3373    -0.0532 C.ar    
   5 C5             0.7305     1.6438    -0.1603 C.ar    
   6 C6            -0.6211     1.9247    -0.3092 C.ar    
   7 P7            -2.2656    -1.8130    -0.2726 P.3     
   8 N8            -1.4278    -3.1380     0.2340 N.2     
   9 C9            -0.1334    -3.0907     0.3131 C.2     
  10 N10            0.6622    -2.0311     0.0010 N.pl3   
  11 C11            0.5455    -4.3100     0.7907 C.2     
  12 C12           -0.0743    -5.4676     1.1506 C.2     
  13 C13            1.0156    -6.4281     1.5678 C.3     
  14 N14            2.2798    -5.6999     1.4061 N.am    
  15 C15            1.9934    -4.4687     0.9466 C.2     
  16 C16            3.6182    -6.2240     1.6892 C.3     
  17 C17            4.1151    -7.0299     0.4873 C.3     
  18 C18            5.5129    -7.5772     0.7830 C.3     
  19 C19            5.4561    -8.4821     2.0154 C.3     
  20 C20            6.0098    -8.3831    -0.4189 C.3     
  21 C21            6.4706    -6.4139     1.0482 C.3     
  22 O22           -3.4002    -1.5523     0.6412 O.2     
  23 O23           -2.8062    -2.0440    -1.7714 O.3     
  24 O24           -1.3968    -5.7090     1.1378 O.3     
  25 O25            2.8181    -3.6089     0.6997 O.2     
  26 N26           -1.0539     3.2508    -0.4200 N.am    
  27 S27           -1.7924     3.9908     0.8643 S.o2    
  28 O28           -2.0973     5.2949     0.3894 O.2     
  29 O29           -2.8235     3.0892     1.2428 O.2     
  30 C30           -0.5089     4.0634     2.1441 C.3     
  31 C31           -3.5233    -1.0472    -2.5024 C.3     
  32 C32           -3.8868    -1.5916    -3.8853 C.3     
  33 C33            0.8263    -6.8371     3.0300 C.3     
  34 C34           -0.6532    -7.1262     3.2912 C.3     
  35 C35            1.6502    -8.0935     3.3189 C.3     
  36 C36            1.2926    -5.7005     3.9419 C.3     
  37 H37           -2.5969     1.0942    -0.4683 H       
  38 H38            2.2185     0.1260     0.0625 H       
  39 H39            1.4462     2.4520    -0.1281 H       
  40 H40            1.5988    -2.2161    -0.1705 H       
  41 H41            1.0052    -7.3094     0.9265 H       
  42 H42            4.3005    -5.3952     1.8781 H       
  43 H43            3.5777    -6.8687     2.5672 H       
  44 H44            3.4328    -7.8587     0.2984 H       
  45 H45            4.1556    -6.3852    -0.3907 H       
  46 H46            4.7738    -9.3109     1.8265 H       
  47 H47            6.4519    -8.8721     2.2261 H       
  48 H48            5.1021    -7.9080     2.8717 H       
  49 H49            6.0503    -7.7384    -1.2969 H       
  50 H50            7.0056    -8.7731    -0.2083 H       
  51 H51            5.3275    -9.2119    -0.6078 H       
  52 H52            6.1166    -5.8398     1.9044 H       
  53 H53            7.4664    -6.8039     1.2588 H       
  54 H54            6.5111    -5.7692     0.1702 H       
  55 H55           -1.9715    -4.9893     0.8430 H       
  56 H56           -0.9214     3.7365    -1.2490 H       
  57 H57            0.3011     4.7119     1.8100 H       
  58 H58           -0.9360     4.4606     3.0650 H       
  59 H59           -0.1204     3.0614     2.3264 H       
  60 H60           -4.4343    -0.7866    -1.9636 H       
  61 H61           -2.9004    -0.1597    -2.6135 H       
  62 H62           -4.4338    -0.8313    -4.4428 H       
  63 H63           -2.9758    -1.8522    -4.4241 H       
  64 H64           -4.5097    -2.4791    -3.7741 H       
  65 H65           -0.9855    -7.9359     2.6415 H       
  66 H66           -0.7881    -7.4176     4.3329 H       
  67 H67           -1.2402    -6.2311     3.0854 H       
  68 H68            2.7008    -7.8960     3.1059 H       
  69 H69            1.5376    -8.3687     4.3675 H       
  70 H70            1.2992    -8.9109     2.6890 H       
  71 H71            0.7057    -4.8054     3.7361 H       
  72 H72            1.1578    -5.9919     4.9836 H       
  73 H73            2.3467    -5.4946     3.7558 H       
@<TRIPOS>BOND
   1    1    2 ar
   2    1    6 ar
   3    1   37 1
   4    2    3 ar
   5    2    7 1
   6    3    4 ar
   7    3   10 1
   8    4    5 ar
   9    4   38 1
  10    5    6 ar
  11    5   39 1
  12    6   26 1
  13    7    8 1
  14    7   22 2
  15    7   23 1
  16    8    9 2
  17    9   10 1
  18    9   11 1
  19   10   40 1
  20   11   12 2
  21   11   15 1
  22   12   13 1
  23   12   24 1
  24   13   14 1
  25   13   33 1
  26   13   41 1
  27   14   15 am
  28   14   16 1
  29   15   25 2
  30   16   17 1
  31   16   42 1
  32   16   43 1
  33   17   18 1
  34   17   44 1
  35   17   45 1
  36   18   19 1
  37   18   20 1
  38   18   21 1
  39   19   46 1
  40   19   47 1
  41   19   48 1
  42   20   49 1
  43   20   50 1
  44   20   51 1
  45   21   52 1
  46   21   53 1
  47   21   54 1
  48   23   31 1
  49   24   55 1
  50   26   27 am
  51   26   56 1
  52   27   28 2
  53   27   29 2
  54   27   30 1
  55   30   57 1
  56   30   58 1
  57   30   59 1
  58   31   32 1
  59   31   60 1
  60   31   61 1
  61   32   62 1
  62   32   63 1
  63   32   64 1
  64   33   34 1
  65   33   35 1
  66   33   36 1
  67   34   65 1
  68   34   66 1
  69   34   67 1
  70   35   68 1
  71   35   69 1
  72   35   70 1
  73   36   71 1
  74   36   72 1
  75   36   73 1

#	End of record

