#	Name: ASD09116143
#	Creating user name:	WinNT
#	Creation time:	15. 06. 2019 21:20

#	Modifying user name:	WinNT
#	Modification time:	15. 06. 2019 21:20

#	Program:	/corina/corina34_cracker 3.40 0067  02.08.2006

@<TRIPOS>MOLECULE
ASD09116143
  73   79    0    0    0
SMALL
NO_CHARGES


@<TRIPOS>ATOM
   1 N1            -0.0266     1.4808     0.1055 N.2     
   2 C2            -0.0141     0.0097     0.1917 C.3     
   3 C3             1.2223     1.8594     0.0816 C.2     
   4 N4             2.0840     0.8237     0.1410 N.2     
   5 C5             1.4646    -0.3258     0.2093 C.2     
   6 N6             1.6189     3.1796     0.0037 N.pl3   
   7 C7             2.9746     3.5091     0.0981 C.ar    
   8 C8             3.4704     4.6165    -0.5780 C.ar    
   9 C9             3.8272     2.7330     0.8726 C.ar    
  10 C10            5.1655     3.0615     0.9641 C.ar    
  11 C11            5.6569     4.1616     0.2856 C.ar    
  12 C12            4.8097     4.9395    -0.4822 C.ar    
  13 N13            2.0277    -1.5618     0.2809 N.pl3   
  14 C14           -0.6795    -0.4541     1.4618 C.ar    
  15 C15           -1.3062     0.4716     2.2708 C.ar    
  16 N16           -0.6537    -1.7433     1.7729 N.ar    
  17 C17           -1.2181    -2.1767     2.8613 C.ar    
  18 C18           -1.8709    -1.3084     3.7441 C.ar    
  19 C19           -1.9271     0.0457     3.4552 C.ar    
  20 C20           -1.2568    -3.6218     3.3236 C.3     
  21 C21           -0.6311    -3.6374     4.7335 C.3     
  22 C22           -1.3477    -2.6154     5.6188 C.3     
  23 N23           -2.4203    -1.9386     4.8635 N.3     
  24 C24           -3.4069    -2.9442     4.4226 C.3     
  25 C25           -2.7478    -3.9747     3.5031 C.3     
  26 C26           -2.6076     1.0031     4.3604 C.ar    
  27 C27           -1.9560     2.1667     4.7655 C.ar    
  28 C28           -3.9034     0.7455     4.8046 C.ar    
  29 C29           -4.5320     1.6403     5.6466 C.ar    
  30 C30           -3.8786     2.7912     6.0493 C.ar    
  31 C31           -2.5944     3.0543     5.6077 C.ar    
  32 C32            7.1179     4.5170     0.3877 C.3     
  33 C33            7.7518     4.4814    -1.0057 C.3     
  34 C34            9.2197     4.9021    -0.9038 C.3     
  35 N35            9.3042     6.2564    -0.3424 N.3     
  36 C36            8.7444     6.3047     1.0143 C.3     
  37 C37            7.2623     5.9259     0.9697 C.3     
  38 C38           10.6887     6.7474    -0.3584 C.3     
  39 H39           -0.5005    -0.4306    -0.6787 H       
  40 H40            0.9571     3.8786    -0.1165 H       
  41 H41            2.8093     5.2242    -1.1781 H       
  42 H42            3.4439     1.8739     1.4031 H       
  43 H43            5.8289     2.4586     1.5665 H       
  44 H44            5.1967     5.7980    -1.0109 H       
  45 H45            2.9932    -1.6554     0.2846 H       
  46 H46            1.4639    -2.3496     0.3282 H       
  47 H47           -1.3185     1.5157     1.9949 H       
  48 H48           -0.7420    -4.2913     2.6345 H       
  49 H49           -0.7369    -4.6317     5.1673 H       
  50 H50            0.4262    -3.3811     4.6649 H       
  51 H51           -1.7805    -3.1256     6.4792 H       
  52 H52           -0.6287    -1.8732     5.9656 H       
  53 H53           -3.8179    -3.4517     5.2953 H       
  54 H54           -4.2129    -2.4455     3.8844 H       
  55 H55           -3.2431    -3.9650     2.5322 H       
  56 H56           -2.8358    -4.9665     3.9465 H       
  57 H57           -0.9533     2.3731     4.4214 H       
  58 H58           -4.4147    -0.1523     4.4903 H       
  59 H59           -5.5360     1.4418     5.9915 H       
  60 H60           -4.3745     3.4888     6.7079 H       
  61 H61           -2.0889     3.9542     5.9256 H       
  62 H62            7.6226     3.8006     1.0359 H       
  63 H63            7.6901     3.4702    -1.4078 H       
  64 H64            7.2211     5.1687    -1.6645 H       
  65 H65            9.7527     4.2064    -0.2558 H       
  66 H66            9.6701     4.8916    -1.8963 H       
  67 H67            9.2797     5.6024     1.6533 H       
  68 H68            8.8496     7.3129     1.4149 H       
  69 H69            6.7239     6.6359     0.3419 H       
  70 H70            6.8509     5.9467     1.9789 H       
  71 H71           11.0539     6.7712    -1.3851 H       
  72 H72           10.7227     7.7521     0.0628 H       
  73 H73           11.3166     6.0831     0.2353 H       
@<TRIPOS>BOND
   1    1    2 1
   2    1    3 2
   3    2   14 1
   4    2    5 1
   5    2   39 1
   6    3    4 1
   7    3    6 1
   8    4    5 2
   9    5   13 1
  10    6    7 1
  11    6   40 1
  12    7    8 ar
  13    7    9 ar
  14    8   12 ar
  15    8   41 1
  16    9   10 ar
  17    9   42 1
  18   10   11 ar
  19   10   43 1
  20   11   12 ar
  21   11   32 1
  22   12   44 1
  23   13   45 1
  24   13   46 1
  25   14   15 ar
  26   14   16 ar
  27   15   19 ar
  28   15   47 1
  29   16   17 ar
  30   17   18 ar
  31   17   20 1
  32   18   19 ar
  33   18   23 1
  34   19   26 1
  35   20   21 1
  36   20   25 1
  37   20   48 1
  38   21   22 1
  39   21   49 1
  40   21   50 1
  41   22   23 1
  42   22   51 1
  43   22   52 1
  44   23   24 1
  45   24   25 1
  46   24   53 1
  47   24   54 1
  48   25   55 1
  49   25   56 1
  50   26   27 ar
  51   26   28 ar
  52   27   31 ar
  53   27   57 1
  54   28   29 ar
  55   28   58 1
  56   29   30 ar
  57   29   59 1
  58   30   31 ar
  59   30   60 1
  60   31   61 1
  61   32   33 1
  62   32   37 1
  63   32   62 1
  64   33   34 1
  65   33   63 1
  66   33   64 1
  67   34   35 1
  68   34   65 1
  69   34   66 1
  70   35   36 1
  71   35   38 1
  72   36   37 1
  73   36   67 1
  74   36   68 1
  75   37   69 1
  76   37   70 1
  77   38   71 1
  78   38   72 1
  79   38   73 1

#	End of record

