#	Name: ASD01910434
#	Creating user name:	WinNT
#	Creation time:	15. 06. 2019 19:55

#	Modifying user name:	WinNT
#	Modification time:	15. 06. 2019 19:55

#	Program:	/corina/corina34_cracker 3.40 0067  02.08.2006

@<TRIPOS>MOLECULE
ASD01910434
  56   60    0    0    0
SMALL
NO_CHARGES


@<TRIPOS>ATOM
   1 C1            -1.1554     1.1509    -1.7977 C.ar    
   2 C2            -1.1667    -0.2283    -1.9315 C.ar    
   3 C3             0.0021    -0.9540    -1.7662 C.ar    
   4 C4             1.1825    -0.3056    -1.4672 C.ar    
   5 C5             1.1984     1.0813    -1.3318 C.ar    
   6 C6             0.0207     1.8073    -1.4993 C.ar    
   7 F7            -2.3207    -0.8673    -2.2234 F       
   8 C8             2.4655     1.7829    -1.0097 C.2     
   9 N9             2.6269     3.1160    -0.8502 N.2     
  10 C10            3.8965     3.2866    -0.5774 C.2     
  11 O11            4.4651     2.0769    -0.5777 O.3     
  12 N12            3.6344     1.2274    -0.8214 N.2     
  13 C13            4.5867     4.5999    -0.3134 C.3     
  14 C14            5.1994     4.5821     1.0889 C.3     
  15 C15            5.8723     5.9275     1.3706 C.3     
  16 C16            6.9963     6.1543     0.3546 C.3     
  17 N17            6.4416     6.0290    -1.0001 N.am    
  18 C18            5.6960     4.8118    -1.3484 C.3     
  19 C19            6.6134     7.0119    -1.9061 C.2     
  20 C20            6.1599     6.8197    -3.3003 C.ar    
  21 O21            7.1410     8.0563    -1.5771 O.2     
  22 C22            5.5530     7.8680    -3.9875 C.ar    
  23 C23            5.1283     7.6782    -5.3021 C.ar    
  24 C24            5.3143     6.4388    -5.9208 C.ar    
  25 C25            5.9164     5.4042    -5.2330 C.ar    
  26 C26            6.3447     5.5877    -3.9331 C.ar    
  27 C27            4.4829     8.7845    -6.0389 C.2     
  28 O28            4.5071     8.8010    -7.2540 O.2     
  29 C29            3.8081     9.8706    -5.2987 C.ar    
  30 C30            3.5746    11.1012    -5.9168 C.ar    
  31 C31            2.9437    12.1105    -5.2199 C.ar    
  32 C32            2.5428    11.9063    -3.9112 C.ar    
  33 C33            2.7710    10.6896    -3.2926 C.ar    
  34 C34            3.3956     9.6695    -3.9794 C.ar    
  35 H35           -2.0677     1.7131    -1.9317 H       
  36 H36           -0.0111    -2.0288    -1.8713 H       
  37 H37            2.0929    -0.8720    -1.3378 H       
  38 H38            0.0287     2.8823    -1.3956 H       
  39 H39            3.8629     5.4119    -0.3838 H       
  40 H40            4.4154     4.4069     1.8256 H       
  41 H41            5.9406     3.7853     1.1512 H       
  42 H42            5.1369     6.7273     1.2841 H       
  43 H43            6.2882     5.9224     2.3781 H       
  44 H44            7.4132     7.1526     0.4878 H       
  45 H45            7.7768     5.4076     0.5004 H       
  46 H46            6.3705     3.9556    -1.3415 H       
  47 H47            5.2550     4.9242    -2.3388 H       
  48 H48            5.4115     8.8235    -3.5043 H       
  49 H49            4.9859     6.2901    -6.9389 H       
  50 H50            6.0571     4.4482    -5.7154 H       
  51 H51            6.8152     4.7741    -3.4011 H       
  52 H52            3.8876    11.2622    -6.9378 H       
  53 H53            2.7625    13.0626    -5.6966 H       
  54 H54            2.0499    12.7004    -3.3700 H       
  55 H55            2.4555    10.5371    -2.2711 H       
  56 H56            3.5731     8.7205    -3.4954 H       
@<TRIPOS>BOND
   1    1    2 ar
   2    1    6 ar
   3    1   35 1
   4    2    3 ar
   5    2    7 1
   6    3    4 ar
   7    3   36 1
   8    4    5 ar
   9    4   37 1
  10    5    6 ar
  11    5    8 1
  12    6   38 1
  13    8    9 1
  14    8   12 2
  15    9   10 2
  16   10   11 1
  17   10   13 1
  18   11   12 1
  19   13   14 1
  20   13   18 1
  21   13   39 1
  22   14   15 1
  23   14   40 1
  24   14   41 1
  25   15   16 1
  26   15   42 1
  27   15   43 1
  28   16   17 1
  29   16   44 1
  30   16   45 1
  31   17   18 1
  32   17   19 am
  33   18   46 1
  34   18   47 1
  35   19   20 1
  36   19   21 2
  37   20   22 ar
  38   20   26 ar
  39   22   23 ar
  40   22   48 1
  41   23   24 ar
  42   23   27 1
  43   24   25 ar
  44   24   49 1
  45   25   26 ar
  46   25   50 1
  47   26   51 1
  48   27   28 2
  49   27   29 1
  50   29   30 ar
  51   29   34 ar
  52   30   31 ar
  53   30   52 1
  54   31   32 ar
  55   31   53 1
  56   32   33 ar
  57   32   54 1
  58   33   34 ar
  59   33   55 1
  60   34   56 1

#	End of record

