#	Name: ASD01152026
#	Creating user name:	WinNT
#	Creation time:	15. 06. 2019 19:05

#	Modifying user name:	WinNT
#	Modification time:	15. 06. 2019 19:05

#	Program:	/corina/corina34_cracker 3.40 0067  02.08.2006

@<TRIPOS>MOLECULE
ASD01152026
  52   55    0    0    0
SMALL
NO_CHARGES


@<TRIPOS>ATOM
   1 N1            -0.0158     1.3132     0.0093 N.2     
   2 C2             0.0021    -0.0041     0.0020 C.2     
   3 N3             1.2893    -0.4365    -0.0126 N.pl3   
   4 C4             2.0984     0.7011    -0.0142 C.2     
   5 C5             1.2324     1.7874    -0.0001 C.2     
   6 S6            -1.4215    -1.0424     0.0106 S.3     
   7 C7            -2.7257     0.2126     0.0295 C.3     
   8 C8             3.5072     0.7397    -0.0270 C.2     
   9 O9             4.0870     1.8107    -0.0269 O.2     
  10 O10            4.2142    -0.4109    -0.0395 O.3     
  11 C11            5.6386    -0.2970    -0.0521 C.3     
  12 C12            6.2619    -1.6942    -0.0651 C.3     
  13 N13            1.5996     3.1280     0.0029 N.am    
  14 C14            0.6520     4.0862     0.0172 C.2     
  15 O15           -0.5239     3.7781     0.0274 O.2     
  16 C16            1.7421    -1.8298    -0.0240 C.3     
  17 C17            1.0423     5.5111     0.0204 C.ar    
  18 C18            0.0629     6.5059     0.0351 C.ar    
  19 C19            0.4340     7.8353     0.0380 C.ar    
  20 C20            1.7757     8.1827     0.0258 C.ar    
  21 C21            2.7511     7.1994     0.0106 C.ar    
  22 C22            2.3924     5.8681     0.0144 C.ar    
  23 Cl23           2.2355     9.8567     0.0289 Cl      
  24 C24            1.8842    -2.3001    -1.4486 C.ar    
  25 C25            3.0883    -2.1451    -2.1091 C.ar    
  26 C26            3.2235    -2.5748    -3.4165 C.ar    
  27 C27            2.1513    -3.1619    -4.0676 C.ar    
  28 C28            0.9377    -3.3186    -3.4016 C.ar    
  29 C29            0.8112    -2.8911    -2.0903 C.ar    
  30 O30            2.0228    -3.6612    -5.3314 O.3     
  31 C31            0.8479    -4.4929    -5.2987 C.3     
  32 O32            0.0494    -3.9159    -4.2486 O.3     
  33 Cl33          -0.7818     9.0744     0.0564 Cl      
  34 H34           -2.6226     0.8303     0.9216 H       
  35 H35           -2.6398     0.8392    -0.8583 H       
  36 H36           -3.7000    -0.2761     0.0364 H       
  37 H37            5.9516     0.2488    -0.9422 H       
  38 H38            5.9681     0.2396     0.8376 H       
  39 H39            7.3484    -1.6073    -0.0747 H       
  40 H40            5.9489    -2.2400     0.8250 H       
  41 H41            5.9324    -2.2308    -0.9548 H       
  42 H42            2.5379     3.3738    -0.0053 H       
  43 H43            2.7055    -1.9028     0.4806 H       
  44 H44            1.0128    -2.4530     0.4934 H       
  45 H45           -0.9828     6.2359     0.0440 H       
  46 H46            3.7950     7.4761     0.0008 H       
  47 H47            3.1542     5.1026     0.0029 H       
  48 H48            3.9253    -1.6872    -1.6031 H       
  49 H49            4.1655    -2.4521    -3.9303 H       
  50 H50           -0.1283    -3.0116    -1.5715 H       
  51 H51            0.3194    -4.4469    -6.2509 H       
  52 H52            1.1137    -5.5218    -5.0564 H       
@<TRIPOS>BOND
   1    1    2 2
   2    1    5 1
   3    2    3 1
   4    2    6 1
   5    3    4 1
   6    3   16 1
   7    4    5 2
   8    4    8 1
   9    5   13 1
  10    6    7 1
  11    7   34 1
  12    7   35 1
  13    7   36 1
  14    8    9 2
  15    8   10 1
  16   10   11 1
  17   11   12 1
  18   11   37 1
  19   11   38 1
  20   12   39 1
  21   12   40 1
  22   12   41 1
  23   13   14 am
  24   13   42 1
  25   14   15 2
  26   14   17 1
  27   16   24 1
  28   16   43 1
  29   16   44 1
  30   17   18 ar
  31   17   22 ar
  32   18   19 ar
  33   18   45 1
  34   19   20 ar
  35   19   33 1
  36   20   21 ar
  37   20   23 1
  38   21   22 ar
  39   21   46 1
  40   22   47 1
  41   24   25 ar
  42   24   29 ar
  43   25   26 ar
  44   25   48 1
  45   26   27 ar
  46   26   49 1
  47   27   28 ar
  48   27   30 1
  49   28   29 ar
  50   28   32 1
  51   29   50 1
  52   30   31 1
  53   31   32 1
  54   31   51 1
  55   31   52 1

#	End of record

