#	Name: ASD05513003
#	Creating user name:	WinNT
#	Creation time:	15. 06. 2019 21:01

#	Modifying user name:	WinNT
#	Modification time:	15. 06. 2019 21:01

#	Program:	/corina/corina34_cracker 3.40 0067  02.08.2006

@<TRIPOS>MOLECULE
ASD05513003
  33   36    0    0    0
SMALL
NO_CHARGES


@<TRIPOS>ATOM
   1 C1            -0.0168     1.3903     0.0097 C.ar    
   2 C2             0.0021    -0.0041     0.0020 C.ar    
   3 C3             1.2237    -0.6970    -0.0134 C.ar    
   4 C4             2.4084     0.0275    -0.0212 C.ar    
   5 C5             2.3784     1.4096    -0.0134 C.ar    
   6 C6             1.1726     2.0904     0.0021 C.ar    
   7 C7            -1.0616    -1.0254     0.0067 C.2     
   8 C8            -0.3340    -2.3371    -0.0073 C.2     
   9 N9             0.9832    -2.0690    -0.0184 N.am    
  10 O10           -2.2615    -0.8446     0.0195 O.2     
  11 O11           -0.8417    -3.4388    -0.0078 O.2     
  12 C12            2.3315     4.3511    -2.0712 C.ar    
  13 C13            2.3318     4.8181    -3.3724 C.ar    
  14 C14            1.1319     5.0491    -4.0320 C.ar    
  15 C15           -0.0747     4.8007    -3.3574 C.ar    
  16 C16           -0.0638     4.3292    -2.0451 C.ar    
  17 C17            1.1404     4.1069    -1.4083 C.ar    
  18 N18            0.8622     5.5101    -5.3186 N.am    
  19 C19           -0.4605     5.5853    -5.5464 C.2     
  20 C20           -1.1599     5.1335    -4.2988 C.2     
  21 O21           -2.3558     5.0584    -4.1064 O.2     
  22 O22           -0.9916     5.9518    -6.5736 O.2     
  23 C23            1.1592     3.5973     0.0099 C.3     
  24 H24           -0.9580     1.9200     0.0170 H       
  25 H25            3.3560    -0.4904    -0.0330 H       
  26 H26            3.3052     1.9641    -0.0193 H       
  27 H27            1.6783    -2.7455    -0.0290 H       
  28 H28            3.2699     4.1705    -1.5681 H       
  29 H29            3.2682     5.0042    -3.8773 H       
  30 H30           -0.9934     4.1391    -1.5292 H       
  31 H31            1.5427     5.7468    -5.9680 H       
  32 H32            0.2712     3.9500     0.5344 H       
  33 H33            2.0510     3.9661     0.5167 H       
@<TRIPOS>BOND
   1    1    2 ar
   2    1    6 ar
   3    1   24 1
   4    2    3 ar
   5    2    7 1
   6    3    4 ar
   7    3    9 1
   8    4    5 ar
   9    4   25 1
  10    5    6 ar
  11    5   26 1
  12    6   23 1
  13    7    8 1
  14    7   10 2
  15    8    9 am
  16    8   11 2
  17    9   27 1
  18   12   13 ar
  19   12   17 ar
  20   12   28 1
  21   13   14 ar
  22   13   29 1
  23   14   15 ar
  24   14   18 1
  25   15   16 ar
  26   15   20 1
  27   16   17 ar
  28   16   30 1
  29   17   23 1
  30   18   19 am
  31   18   31 1
  32   19   20 1
  33   19   22 2
  34   20   21 2
  35   23   32 1
  36   23   33 1

#	End of record

