#	Name: ASD04660022
#	Creating user name:	WinNT
#	Creation time:	15. 06. 2019 20:52

#	Modifying user name:	WinNT
#	Modification time:	15. 06. 2019 20:52

#	Program:	/corina/corina34_cracker 3.40 0067  02.08.2006

@<TRIPOS>MOLECULE
ASD04660022
  44   47    0    0    0
SMALL
NO_CHARGES


@<TRIPOS>ATOM
   1 N1             8.9207    -0.1747    -4.3870 N.am    
   2 C2            10.1722     0.1895    -4.0013 C.2     
   3 C3            10.0561     0.9709    -2.7643 C.ar    
   4 C4             8.6774     1.0066    -2.5073 C.ar    
   5 C5             8.0979     1.6519    -1.4143 C.ar    
   6 C6             6.6989     1.5906    -1.3050 C.ar    
   7 C7             5.9981     0.9107    -2.2640 C.ar    
   8 C8             6.6040     0.2741    -3.3465 C.ar    
   9 C9             7.9787     0.3118    -3.4894 C.ar    
  10 C10            8.9640     2.3049    -0.5206 C.ar    
  11 C11           10.3114     2.2753    -0.7629 C.ar    
  12 C12           10.8745     1.6255    -1.8608 C.ar    
  13 O13           11.2071    -0.0841    -4.5800 O.2     
  14 S14            5.8649     2.3709     0.0368 S.o2    
  15 O15            6.3787     3.6935     0.1138 O.2     
  16 O16            4.4833     2.0821    -0.1271 O.2     
  17 N17            6.3420     1.6024     1.4239 N.am    
  18 C18            6.0112     0.1901     1.6297 C.3     
  19 C19            4.4940     0.0340     1.7502 C.3     
  20 O20            6.4823    -0.5761     0.5192 O.3     
  21 C21            6.6687    -0.3008     2.8937 C.ar    
  22 C22            7.0464    -1.6257     3.0068 C.ar    
  23 C23            7.6495    -2.0760     4.1663 C.ar    
  24 C24            7.8753    -1.2012     5.2125 C.ar    
  25 C25            7.4984     0.1239     5.0992 C.ar    
  26 C26            6.8993     0.5752     3.9380 C.ar    
  27 N27            8.5201    -1.6836     6.4545 N.pl3   
  28 O28            8.8518    -2.8513     6.5546 O.2     
  29 O29            8.7191    -0.9129     7.3764 O.2     
  30 H30            8.7145    -0.6963    -5.1783 H       
  31 H31            4.9225     0.8647    -2.1779 H       
  32 H32            5.9996    -0.2490    -4.0728 H       
  33 H33            8.5732     2.8219     0.3433 H       
  34 H34           10.9694     2.7796    -0.0707 H       
  35 H35           11.9449     1.6326    -2.0049 H       
  36 H36            6.8404     2.0873     2.1001 H       
  37 H37            4.0276     0.2676     0.7931 H       
  38 H38            4.2555    -0.9922     2.0298 H       
  39 H39            4.1181     0.7153     2.5135 H       
  40 H40            7.4381    -0.5239     0.3825 H       
  41 H41            6.8700    -2.3091     2.1893 H       
  42 H42            7.9439    -3.1113     4.2549 H       
  43 H43            7.6745     0.8073     5.9167 H       
  44 H44            6.6082     1.6113     3.8480 H       
@<TRIPOS>BOND
   1    1    2 am
   2    1    9 1
   3    1   30 1
   4    2    3 1
   5    2   13 2
   6    3    4 ar
   7    3   12 ar
   8    4    5 ar
   9    4    9 ar
  10    5    6 ar
  11    5   10 ar
  12    6    7 ar
  13    6   14 1
  14    7    8 ar
  15    7   31 1
  16    8    9 ar
  17    8   32 1
  18   10   11 ar
  19   10   33 1
  20   11   12 ar
  21   11   34 1
  22   12   35 1
  23   14   15 2
  24   14   16 2
  25   14   17 am
  26   17   18 1
  27   17   36 1
  28   18   19 1
  29   18   20 1
  30   18   21 1
  31   19   37 1
  32   19   38 1
  33   19   39 1
  34   20   40 1
  35   21   22 ar
  36   21   26 ar
  37   22   23 ar
  38   22   41 1
  39   23   24 ar
  40   23   42 1
  41   24   25 ar
  42   24   27 1
  43   25   26 ar
  44   25   43 1
  45   26   44 1
  46   27   28 2
  47   27   29 2

#	End of record

