#	Name: ASD00241003
#	Creating user name:	WinNT
#	Creation time:	15. 06. 2019 18:33

#	Modifying user name:	WinNT
#	Modification time:	15. 06. 2019 18:33

#	Program:	/corina/corina34_cracker 3.40 0067  02.08.2006

@<TRIPOS>MOLECULE
ASD00241003
  54   56    0    0    0
SMALL
NO_CHARGES


@<TRIPOS>ATOM
   1 C1            -0.2832     1.3773    -0.0969 C.3     
   2 C2            -0.5168    -0.1440    -0.2317 C.3     
   3 C3            -1.3085    -0.5165     1.0414 C.3     
   4 O4            -1.9496     0.7115     1.4498 O.3     
   5 C5            -0.9614     1.7440     1.2418 C.3     
   6 C6            -3.4938    -1.3428     0.0674 C.ar    
   7 C7            -4.1212    -2.5987     0.0126 C.ar    
   8 N8            -4.0994    -0.2938    -0.4798 N.ar    
   9 C9            -5.2706    -0.4256    -1.0658 C.ar    
  10 N10           -5.8989    -1.5848    -1.1417 N.ar    
  11 C11           -5.3709    -2.6889    -0.6240 C.ar    
  12 N12           -3.3035    -3.4810     0.6356 N.2     
  13 C13           -2.2401    -2.8616     1.0589 C.2     
  14 N14           -2.3124    -1.5391     0.7368 N.pl3   
  15 C15           -1.6356     3.1137     1.1397 C.3     
  16 N16           -2.3470     3.4038     2.3918 N.3     
  17 C17           -1.4082     3.7925     3.4527 C.3     
  18 C18           -2.1342     3.8430     4.7723 C.2     
  19 C19           -1.6934     3.1452     5.7896 C.2     
  20 C20           -2.4195     3.1957     7.1092 C.3     
  21 N21           -2.7707     1.8320     7.5273 N.3     
  22 O22            1.1153     1.6666    -0.0454 O.3     
  23 O23            0.7303    -0.8408    -0.2677 O.3     
  24 N24           -6.0367    -3.8991    -0.7088 N.pl3   
  25 C25           -1.0994    -3.5099     1.8004 C.3     
  26 C26           -0.0543    -4.0032     0.7978 C.3     
  27 C27           -3.3696     4.4387     2.1886 C.3     
  28 H28           -0.7524     1.9106    -0.9237 H       
  29 H29           -1.1035    -0.3627    -1.1240 H       
  30 H30           -0.6315    -0.8683     1.8199 H       
  31 H31           -0.2312     1.7390     2.0510 H       
  32 H32           -5.7354     0.4470    -1.5006 H       
  33 H33           -0.8792     3.8789     0.9658 H       
  34 H34           -2.3446     3.1089     0.3118 H       
  35 H35           -0.6014     3.0618     3.5096 H       
  36 H36           -0.9931     4.7752     3.2285 H       
  37 H37           -3.0181     4.4544     4.8793 H       
  38 H38           -0.8095     2.5338     5.6826 H       
  39 H39           -1.7754     3.6517     7.8611 H       
  40 H40           -3.3281     3.7881     7.0015 H       
  41 H41           -3.2589     1.8389     8.4103 H       
  42 H42           -3.3144     1.3648     6.8171 H       
  43 H43            1.6013     1.4006    -0.8379 H       
  44 H44            1.2942    -0.5995    -1.0152 H       
  45 H45           -6.8991    -3.9484    -1.1501 H       
  46 H46           -5.6409    -4.6982    -0.3270 H       
  47 H47           -0.6434    -2.7831     2.4727 H       
  48 H48           -1.4751    -4.3540     2.3787 H       
  49 H49            0.3214    -3.1590     0.2196 H       
  50 H50            0.7707    -4.4721     1.3341 H       
  51 H51           -0.5103    -4.7299     0.1255 H       
  52 H52           -4.0325     4.1400     1.3766 H       
  53 H53           -3.9487     4.5618     3.1038 H       
  54 H54           -2.8863     5.3822     1.9348 H       
@<TRIPOS>BOND
   1    1    2 1
   2    1   22 1
   3    1    5 1
   4    1   28 1
   5    2    3 1
   6    2   23 1
   7    2   29 1
   8    3    4 1
   9    3   14 1
  10    3   30 1
  11    4    5 1
  12    5   15 1
  13    5   31 1
  14    6    7 ar
  15    6    8 ar
  16    6   14 1
  17    7   12 1
  18    7   11 ar
  19    8    9 ar
  20    9   10 ar
  21    9   32 1
  22   10   11 ar
  23   11   24 1
  24   12   13 2
  25   13   14 1
  26   13   25 1
  27   15   16 1
  28   15   33 1
  29   15   34 1
  30   16   17 1
  31   16   27 1
  32   17   18 1
  33   17   35 1
  34   17   36 1
  35   18   19 2
  36   18   37 1
  37   19   20 1
  38   19   38 1
  39   20   21 1
  40   20   39 1
  41   20   40 1
  42   21   41 1
  43   21   42 1
  44   22   43 1
  45   23   44 1
  46   24   45 1
  47   24   46 1
  48   25   26 1
  49   25   47 1
  50   25   48 1
  51   26   49 1
  52   26   50 1
  53   26   51 1
  54   27   52 1
  55   27   53 1
  56   27   54 1

#	End of record

