#	Name: ASD04882120
#	Creating user name:	WinNT
#	Creation time:	15. 06. 2019 20:54

#	Modifying user name:	WinNT
#	Modification time:	15. 06. 2019 20:54

#	Program:	/corina/corina34_cracker 3.40 0067  02.08.2006

@<TRIPOS>MOLECULE
ASD04882120
  81   86    0    0    0
SMALL
NO_CHARGES


@<TRIPOS>ATOM
   1 C1            -0.3865     1.6239    -1.2811 C.ar    
   2 C2            -0.2447     0.3647    -0.7176 C.ar    
   3 C3            -1.4333    -0.4538    -0.4140 C.2     
   4 O4            -1.3018    -1.5572     0.0801 O.2     
   5 N5            -2.6654     0.0210    -0.6842 N.am    
   6 C6            -3.7875    -0.7969    -0.4988 C.ar    
   7 C7            -5.0030    -0.2362    -0.0953 C.ar    
   8 C8            -6.1171    -1.0465     0.0886 C.ar    
   9 C9            -6.0280    -2.4044    -0.1256 C.ar    
  10 C10           -4.8161    -2.9713    -0.5285 C.ar    
  11 C11           -3.6954    -2.1578    -0.7202 C.ar    
  12 N12           -5.0974     1.1357     0.1232 N.3     
  13 C13           -4.2860     1.5419     1.2791 C.3     
  14 C14           -4.3531     3.0628     1.4369 C.3     
  15 N15           -5.7535     3.4735     1.6096 N.3     
  16 C16           -6.5648     3.0673     0.4536 C.3     
  17 C17           -6.4978     1.5464     0.2959 C.3     
  18 C18           -5.8481     4.8497     1.8287 C.ar    
  19 C19           -5.3409     5.4052     2.9968 C.ar    
  20 C20           -6.0351     7.5761     2.2626 C.ar    
  21 C21           -6.4443     5.6667     0.8768 C.ar    
  22 C22           -5.4357     6.7662     3.2101 C.ar    
  23 C23           -6.5358     7.0273     1.0965 C.ar    
  24 C24           -4.6886     4.5234     4.0302 C.3     
  25 C25           -4.7209    -4.4257    -0.7573 C.2     
  26 N26           -5.8033    -5.2084    -0.5777 N.am    
  27 O27           -3.6659    -4.9182    -1.1080 O.2     
  28 C28           -5.7087    -6.6526    -0.8049 C.3     
  29 C29           -7.0672    -7.3017    -0.5328 C.3     
  30 C30           -6.9685    -8.8099    -0.7701 C.3     
  31 N31           -8.2693    -9.4315    -0.5096 N.am    
  32 C32           -9.2263    -9.6051    -1.4373 C.2     
  33 C33          -10.4371   -10.2678    -0.8181 C.3     
  34 C34          -10.2300   -10.0898     0.7039 C.3     
  35 C35           -8.6925    -9.9502     0.7965 C.3     
  36 O36           -9.1329    -9.2777    -2.6014 O.2     
  37 C37            1.0544    -0.1277    -0.4368 C.ar    
  38 C38            2.1794     0.6777    -0.7383 C.ar    
  39 C39            1.9881     1.9490    -1.3096 C.ar    
  40 C40            0.7295     2.4002    -1.5701 C.ar    
  41 N41            1.2314    -1.3345     0.1057 N.ar    
  42 C42            2.4481    -1.7647     0.3554 C.ar    
  43 C43            3.5584    -0.9715     0.0586 C.ar    
  44 N44            3.4081     0.2189    -0.4754 N.ar    
  45 H45           -1.3734     2.0031    -1.5016 H       
  46 H46           -2.7752     0.9291    -1.0071 H       
  47 H47           -7.0548    -0.6106     0.4003 H       
  48 H48           -6.8955    -3.0314     0.0185 H       
  49 H49           -2.7587    -2.5925    -1.0363 H       
  50 H50           -4.6724     1.0655     2.1801 H       
  51 H51           -3.2511     1.2379     1.1219 H       
  52 H52           -3.7754     3.3636     2.3109 H       
  53 H53           -3.9415     3.5392     0.5471 H       
  54 H54           -7.5997     3.3713     0.6108 H       
  55 H55           -6.1784     3.5437    -0.4474 H       
  56 H56           -7.0754     1.2456    -0.5782 H       
  57 H57           -6.9093     1.0700     1.1857 H       
  58 H58           -6.1083     8.6402     2.4321 H       
  59 H59           -6.8355     5.2386    -0.0343 H       
  60 H60           -5.0417     7.1986     4.1179 H       
  61 H61           -7.0033     7.6625     0.3587 H       
  62 H62           -3.6113     4.5056     3.8648 H       
  63 H63           -4.8969     4.9150     5.0258 H       
  64 H64           -5.0856     3.5116     3.9473 H       
  65 H65           -6.6449    -4.8155    -0.2980 H       
  66 H66           -5.4172    -6.8395    -1.8384 H       
  67 H67           -4.9620    -7.0778    -0.1342 H       
  68 H68           -7.3587    -7.1148     0.5007 H       
  69 H69           -7.8139    -6.8765    -1.2035 H       
  70 H70           -6.6770    -8.9968    -1.8036 H       
  71 H71           -6.2218    -9.2351    -0.0994 H       
  72 H72          -11.3513    -9.7688    -1.1396 H       
  73 H73          -10.4674   -11.3259    -1.0778 H       
  74 H74          -10.7297    -9.1901     1.0630 H       
  75 H75          -10.5728   -10.9688     1.2496 H       
  76 H76           -8.2334   -10.9210     0.9835 H       
  77 H77           -8.4255    -9.2476     1.5859 H       
  78 H78            2.8414     2.5691    -1.5418 H       
  79 H79            0.5965     3.3781    -2.0088 H       
  80 H80            2.5904    -2.7410     0.7947 H       
  81 H81            4.5510    -1.3408     0.2703 H       
@<TRIPOS>BOND
   1    1    2 ar
   2    1   40 ar
   3    1   45 1
   4    2    3 1
   5    2   37 ar
   6    3    4 2
   7    3    5 am
   8    5    6 1
   9    5   46 1
  10    6    7 ar
  11    6   11 ar
  12    7    8 ar
  13    7   12 1
  14    8    9 ar
  15    8   47 1
  16    9   10 ar
  17    9   48 1
  18   10   11 ar
  19   10   25 1
  20   11   49 1
  21   12   13 1
  22   12   17 1
  23   13   14 1
  24   13   50 1
  25   13   51 1
  26   14   15 1
  27   14   52 1
  28   14   53 1
  29   15   16 1
  30   15   18 1
  31   16   17 1
  32   16   54 1
  33   16   55 1
  34   17   56 1
  35   17   57 1
  36   18   19 ar
  37   18   21 ar
  38   19   22 ar
  39   19   24 1
  40   20   22 ar
  41   20   23 ar
  42   20   58 1
  43   21   23 ar
  44   21   59 1
  45   22   60 1
  46   23   61 1
  47   24   62 1
  48   24   63 1
  49   24   64 1
  50   25   26 am
  51   25   27 2
  52   26   28 1
  53   26   65 1
  54   28   29 1
  55   28   66 1
  56   28   67 1
  57   29   30 1
  58   29   68 1
  59   29   69 1
  60   30   31 1
  61   30   70 1
  62   30   71 1
  63   31   32 am
  64   31   35 1
  65   32   33 1
  66   32   36 2
  67   33   34 1
  68   33   72 1
  69   33   73 1
  70   34   35 1
  71   34   74 1
  72   34   75 1
  73   35   76 1
  74   35   77 1
  75   37   38 ar
  76   37   41 ar
  77   38   39 ar
  78   38   44 ar
  79   39   40 ar
  80   39   78 1
  81   40   79 1
  82   41   42 ar
  83   42   43 ar
  84   42   80 1
  85   43   44 ar
  86   43   81 1

#	End of record

