#	Name: ASD03330460
#	Creating user name:	WinNT
#	Creation time:	15. 06. 2019 20:37

#	Modifying user name:	WinNT
#	Modification time:	15. 06. 2019 20:37

#	Program:	/corina/corina34_cracker 3.40 0067  02.08.2006

@<TRIPOS>MOLECULE
ASD03330460
  57   59    0    0    0
SMALL
NO_CHARGES


@<TRIPOS>ATOM
   1 C1            -1.2896     2.0917    -2.1067 C.3     
   2 N2            -1.1248     0.7043    -1.6509 N.3     
   3 C3            -0.3373    -0.0840    -2.6161 C.3     
   4 C4             0.9137     0.6916    -2.9390 C.2     
   5 N5             1.0767     2.0164    -2.6534 N.pl3   
   6 C6             0.0485     2.8353    -2.0053 C.3     
   7 C7             2.0543     0.2673    -3.5363 C.2     
   8 N8             2.8981     1.3230    -3.6081 N.2     
   9 C9             2.3162     2.3761    -3.0783 C.2     
  10 C10            2.9104     3.7253    -2.9646 C.ar    
  11 C11            2.3267    -1.0977    -4.0197 C.2     
  12 O12            1.4838    -1.9658    -3.8969 O.2     
  13 C13            3.7807    -2.7415    -5.0785 C.3     
  14 N14            3.5099    -1.3843    -4.5980 N.am    
  15 C15           -2.4277     0.0755    -1.3964 C.3     
  16 C16            2.8237     4.4297    -1.7635 C.ar    
  17 C17            4.3047    -3.5966    -3.9231 C.3     
  18 C18            3.2169    -3.7336    -2.8559 C.3     
  19 C19            4.6836    -4.9836    -4.4461 C.3     
  20 C20            5.5375    -2.9277    -3.3118 C.3     
  21 C21            4.8143    -2.6896    -6.1740 C.2     
  22 O22            5.4767    -1.6866    -6.3357 O.2     
  23 N23            5.0024    -3.7577    -6.9741 N.am    
  24 C24            6.0588    -3.7357    -7.9890 C.3     
  25 C25            3.3795     5.6880    -1.6624 C.ar    
  26 C26            4.0238     6.2543    -2.7511 C.ar    
  27 C27            4.1136     5.5612    -3.9473 C.ar    
  28 C28            3.5661     4.2976    -4.0584 C.ar    
  29 F29            4.5661     7.4872    -2.6454 F       
  30 F30            3.6541     3.6216    -5.2248 F       
  31 H31           -1.6281     2.0948    -3.1428 H       
  32 H32           -2.0304     2.5922    -1.4832 H       
  33 H33           -0.0717    -1.0456    -2.1769 H       
  34 H34           -0.9184    -0.2411    -3.5248 H       
  35 H35           -0.0268     3.7985    -2.5099 H       
  36 H36            0.3062     2.9875    -0.9572 H       
  37 H37            2.8613    -3.1796    -5.4669 H       
  38 H38            4.1822    -0.6919    -4.6959 H       
  39 H39           -3.0425     0.1371    -2.2943 H       
  40 H40           -2.2801    -0.9706    -1.1282 H       
  41 H41           -2.9274     0.5934    -0.5777 H       
  42 H42            2.3218     3.9905    -0.9140 H       
  43 H43            2.3387    -4.2102    -3.2914 H       
  44 H44            3.5902    -4.3428    -2.0327 H       
  45 H45            2.9470    -2.7455    -2.4833 H       
  46 H46            5.3618    -4.8797    -5.2931 H       
  47 H47            5.1753    -5.5486    -3.6542 H       
  48 H48            3.7838    -5.5105    -4.7636 H       
  49 H49            5.2675    -1.9396    -2.9392 H       
  50 H50            5.9108    -3.5369    -2.4886 H       
  51 H51            6.3124    -2.8300    -4.0721 H       
  52 H52            4.4384    -4.5410    -6.8780 H       
  53 H53            6.0586    -4.6796    -8.5341 H       
  54 H54            5.8785    -2.9150    -8.6833 H       
  55 H55            7.0251    -3.5961    -7.5045 H       
  56 H56            3.3121     6.2335    -0.7328 H       
  57 H57            4.6162     6.0075    -4.7927 H       
@<TRIPOS>BOND
   1    1    2 1
   2    1    6 1
   3    1   31 1
   4    1   32 1
   5    2    3 1
   6    2   15 1
   7    3    4 1
   8    3   33 1
   9    3   34 1
  10    4    5 1
  11    4    7 2
  12    5    6 1
  13    5    9 1
  14    6   35 1
  15    6   36 1
  16    7    8 1
  17    7   11 1
  18    8    9 2
  19    9   10 1
  20   10   16 ar
  21   10   28 ar
  22   11   12 2
  23   11   14 am
  24   13   14 1
  25   13   17 1
  26   13   21 1
  27   13   37 1
  28   14   38 1
  29   15   39 1
  30   15   40 1
  31   15   41 1
  32   16   25 ar
  33   16   42 1
  34   17   18 1
  35   17   19 1
  36   17   20 1
  37   18   43 1
  38   18   44 1
  39   18   45 1
  40   19   46 1
  41   19   47 1
  42   19   48 1
  43   20   49 1
  44   20   50 1
  45   20   51 1
  46   21   22 2
  47   21   23 am
  48   23   24 1
  49   23   52 1
  50   24   53 1
  51   24   54 1
  52   24   55 1
  53   25   26 ar
  54   25   56 1
  55   26   27 ar
  56   26   29 1
  57   27   28 ar
  58   27   57 1
  59   28   30 1

#	End of record

