#	Name: ASD06170197
#	Creating user name:	WinNT
#	Creation time:	15. 06. 2019 21:05

#	Modifying user name:	WinNT
#	Modification time:	15. 06. 2019 21:05

#	Program:	/corina/corina34_cracker 3.40 0067  02.08.2006

@<TRIPOS>MOLECULE
ASD06170197
  63   67    0    0    0
SMALL
NO_CHARGES


@<TRIPOS>ATOM
   1 C1             0.0531     1.2981    -0.0669 C.2     
   2 C2             0.0247    -0.0896     0.2279 C.2     
   3 C3             1.2248    -0.7438     0.4990 C.2     
   4 C4             2.4134    -0.0136     0.4716 C.2     
   5 C5             2.3914     1.3137     0.1842 C.2     
   6 N6             1.2281     1.9557    -0.0802 N.am    
   7 C7            -1.2490    -0.8243     0.2475 C.2     
   8 O8            -1.2522    -2.0325     0.3905 O.2     
   9 N9            -2.4129    -0.1593     0.1072 N.am    
  10 O10           -0.9825     1.8921    -0.3124 O.2     
  11 C11           -3.6177    -0.8678     0.0152 C.ar    
  12 C12           -4.8239    -0.2237     0.2647 C.ar    
  13 C13           -6.0115    -0.9234     0.1732 C.ar    
  14 C14           -5.9999    -2.2686    -0.1676 C.ar    
  15 C15           -4.7960    -2.9115    -0.4166 C.ar    
  16 C16           -3.6081    -2.2121    -0.3307 C.ar    
  17 O17           -7.1688    -2.9569    -0.2571 O.3     
  18 N18           -8.1192    -5.5266     2.8259 N.ar    
  19 C19           -7.0584    -4.7585     2.9101 C.ar    
  20 C20           -6.7066    -3.8811     1.8922 C.ar    
  21 C21           -7.4874    -3.8043     0.7523 C.ar    
  22 C22           -8.6270    -4.6359     0.6726 C.ar    
  23 C23           -9.4669    -4.6138    -0.4509 C.ar    
  24 C24          -10.5596    -5.4306    -0.4937 C.ar    
  25 C25          -10.8512    -6.2911     0.5744 C.ar    
  26 C26          -10.0508    -6.3324     1.6794 C.ar    
  27 C27           -8.9186    -5.5041     1.7528 C.ar    
  28 O28          -11.9454    -7.0942     0.5088 O.3     
  29 C29          -12.1908    -7.9491     1.6273 C.3     
  30 O30          -11.3738    -5.4094    -1.5826 O.3     
  31 C31          -11.0234    -4.5110    -2.6371 C.3     
  32 Cl32          -4.8380     1.4589     0.6916 Cl      
  33 Br33           4.0579    -0.8733     0.8358 Br      
  34 C34            1.2488     3.3883    -0.3856 C.3     
  35 C35            1.1055     4.1762     0.8911 C.ar    
  36 C36            2.2301     4.5475     1.6040 C.ar    
  37 C37            2.0987     5.2701     2.7751 C.ar    
  38 C38            0.8427     5.6218     3.2330 C.ar    
  39 C39           -0.2818     5.2513     2.5195 C.ar    
  40 C40           -0.1502     4.5324     1.3462 C.ar    
  41 H41            1.2347    -1.7994     0.7271 H       
  42 H42            3.3184     1.8676     0.1662 H       
  43 H43           -2.4161     0.8100     0.0698 H       
  44 H44           -6.9490    -0.4236     0.3673 H       
  45 H45           -4.7879    -3.9585    -0.6814 H       
  46 H46           -2.6715    -2.7121    -0.5287 H       
  47 H47           -6.4417    -4.8101     3.7952 H       
  48 H48           -5.8279    -3.2609     1.9904 H       
  49 H49           -9.2501    -3.9536    -1.2777 H       
  50 H50          -10.2874    -6.9997     2.4949 H       
  51 H51          -11.3428    -8.6200     1.7646 H       
  52 H52          -12.3246    -7.3444     2.5242 H       
  53 H53          -13.0920    -8.5348     1.4461 H       
  54 H54          -11.7532    -4.5937    -3.4425 H       
  55 H55          -11.0161    -3.4895    -2.2569 H       
  56 H56          -10.0334    -4.7644    -3.0165 H       
  57 H57            2.1932     3.6438    -0.8662 H       
  58 H58            0.4234     3.6290    -1.0556 H       
  59 H59            3.2114     4.2727     1.2463 H       
  60 H60            2.9773     5.5596     3.3325 H       
  61 H61            0.7400     6.1858     4.1483 H       
  62 H62           -1.2631     5.5258     2.8775 H       
  63 H63           -1.0286     4.2461     0.7869 H       
@<TRIPOS>BOND
   1    1    2 1
   2    1    6 am
   3    1   10 2
   4    2    3 2
   5    2    7 1
   6    3    4 1
   7    3   41 1
   8    4    5 2
   9    4   33 1
  10    5    6 1
  11    5   42 1
  12    6   34 1
  13    7    8 2
  14    7    9 am
  15    9   11 1
  16    9   43 1
  17   11   12 ar
  18   11   16 ar
  19   12   13 ar
  20   12   32 1
  21   13   14 ar
  22   13   44 1
  23   14   15 ar
  24   14   17 1
  25   15   16 ar
  26   15   45 1
  27   16   46 1
  28   17   21 1
  29   18   19 ar
  30   18   27 ar
  31   19   20 ar
  32   19   47 1
  33   20   21 ar
  34   20   48 1
  35   21   22 ar
  36   22   23 ar
  37   22   27 ar
  38   23   24 ar
  39   23   49 1
  40   24   25 ar
  41   24   30 1
  42   25   26 ar
  43   25   28 1
  44   26   27 ar
  45   26   50 1
  46   28   29 1
  47   29   51 1
  48   29   52 1
  49   29   53 1
  50   30   31 1
  51   31   54 1
  52   31   55 1
  53   31   56 1
  54   34   35 1
  55   34   57 1
  56   34   58 1
  57   35   36 ar
  58   35   40 ar
  59   36   37 ar
  60   36   59 1
  61   37   38 ar
  62   37   60 1
  63   38   39 ar
  64   38   61 1
  65   39   40 ar
  66   39   62 1
  67   40   63 1

#	End of record

