#	Name: ASD03081179
#	Creating user name:	WinNT
#	Creation time:	15. 06. 2019 20:27

#	Modifying user name:	WinNT
#	Modification time:	15. 06. 2019 20:27

#	Program:	/corina/corina34_cracker 3.40 0067  02.08.2006

@<TRIPOS>MOLECULE
ASD03081179
  50   52    0    0    0
SMALL
NO_CHARGES


@<TRIPOS>ATOM
   1 C1             0.1975     2.2474    -0.8658 C.3     
   2 C2            -0.3163     0.8096    -0.7416 C.3     
   3 N3             0.6014    -0.0843    -1.4610 N.am    
   4 C4             2.0328    -0.0395    -1.1326 C.3     
   5 C5             2.5212     1.4076    -1.2524 C.3     
   6 C6             1.6471     2.3113    -0.3808 C.3     
   7 C7             2.1527     3.7533    -0.4730 C.3     
   8 C8             1.3143     4.6425     0.4482 C.3     
   9 N9             1.4191     4.1546     1.8293 N.3     
  10 C10            0.8947     2.7884     1.9513 C.3     
  11 C11            1.7199     1.8434     1.0748 C.3     
  12 C12            0.1390    -0.9293    -2.4037 C.2     
  13 O13           -1.0572    -1.0272    -2.5984 O.2     
  14 N14            1.0026    -1.6657    -3.1306 N.am    
  15 C15            0.7404     5.0643     2.7619 C.3     
  16 C16            0.5215    -2.6515    -4.0028 C.ar    
  17 C17            1.1960    -2.9210    -5.1862 C.ar    
  18 C18            0.7206    -3.8935    -6.0459 C.ar    
  19 C19           -0.4317    -4.6005    -5.7250 C.ar    
  20 C20           -1.1042    -4.3307    -4.5435 C.ar    
  21 C21           -0.6262    -3.3627    -3.6811 C.ar    
  22 O22           -0.9001    -5.5573    -6.5709 O.3     
  23 C23           -2.0897    -6.2448    -6.1778 C.3     
  24 F24            1.3758    -4.1562    -7.1978 F       
  25 H25            0.1485     2.5624    -1.9081 H       
  26 H26           -0.4193     2.9079    -0.2565 H       
  27 H27           -0.3545     0.5247     0.3098 H       
  28 H28           -1.3126     0.7386    -1.1780 H       
  29 H29            2.1850    -0.3932    -0.1129 H       
  30 H30            2.5870    -0.6709    -1.8271 H       
  31 H31            3.5567     1.4708    -0.9180 H       
  32 H32            2.4539     1.7292    -2.2917 H       
  33 H33            3.1975     3.7930    -0.1650 H       
  34 H34            2.0620     4.1058    -1.5005 H       
  35 H35            1.6814     5.6675     0.3962 H       
  36 H36            0.2719     4.6136     0.1309 H       
  37 H37            0.9572     2.4669     2.9909 H       
  38 H38           -0.1458     2.7685     1.6272 H       
  39 H39            1.3198     0.8325     1.1525 H       
  40 H40            2.7577     1.8513     1.4080 H       
  41 H41            1.9572    -1.5134    -3.0501 H       
  42 H42           -0.3141     5.1369     2.4960 H       
  43 H43            0.8334     4.6792     3.7774 H       
  44 H44            1.1984     6.0517     2.7044 H       
  45 H45            2.0914    -2.3708    -5.4351 H       
  46 H46           -1.9998    -4.8806    -4.2946 H       
  47 H47           -1.1482    -3.1565    -2.7584 H       
  48 H48           -2.3534    -6.9789    -6.9391 H       
  49 H49           -1.9194    -6.7515    -5.2279 H       
  50 H50           -2.9035    -5.5282    -6.0667 H       
@<TRIPOS>BOND
   1    1    2 1
   2    1    6 1
   3    1   25 1
   4    1   26 1
   5    2    3 1
   6    2   27 1
   7    2   28 1
   8    3    4 1
   9    3   12 am
  10    4    5 1
  11    4   29 1
  12    4   30 1
  13    5    6 1
  14    5   31 1
  15    5   32 1
  16    6    7 1
  17    6   11 1
  18    7    8 1
  19    7   33 1
  20    7   34 1
  21    8    9 1
  22    8   35 1
  23    8   36 1
  24    9   10 1
  25    9   15 1
  26   10   11 1
  27   10   37 1
  28   10   38 1
  29   11   39 1
  30   11   40 1
  31   12   13 2
  32   12   14 am
  33   14   16 1
  34   14   41 1
  35   15   42 1
  36   15   43 1
  37   15   44 1
  38   16   17 ar
  39   16   21 ar
  40   17   18 ar
  41   17   45 1
  42   18   19 ar
  43   18   24 1
  44   19   20 ar
  45   19   22 1
  46   20   21 ar
  47   20   46 1
  48   21   47 1
  49   22   23 1
  50   23   48 1
  51   23   49 1
  52   23   50 1

#	End of record

