#	Name: ASD00431359
#	Creating user name:	WinNT
#	Creation time:	15. 06. 2019 18:35

#	Modifying user name:	WinNT
#	Modification time:	15. 06. 2019 18:35

#	Program:	/corina/corina34_cracker 3.40 0067  02.08.2006

@<TRIPOS>MOLECULE
ASD00431359
  56   61    0    0    0
SMALL
NO_CHARGES


@<TRIPOS>ATOM
   1 C1             0.3498     0.6116    -0.3265 C.2     
   2 N2             0.0135    -0.6871    -0.4269 N.am    
   3 C3             1.0916    -1.4471    -0.6908 C.2     
   4 C4             2.2774    -0.5687    -0.7769 C.ar    
   5 C5             3.6249    -0.7828    -1.0187 C.ar    
   6 C6             4.5001     0.2920    -1.0311 C.ar    
   7 C7             4.0378     1.5748    -0.8041 C.ar    
   8 C8             2.6926     1.8041    -0.5609 C.ar    
   9 C9             1.8060     0.7393    -0.5455 C.ar    
  10 O10           -0.4158     1.5265    -0.0991 O.2     
  11 O11            1.0910    -2.6531    -0.8336 O.2     
  12 C12           -1.3477    -1.2055    -0.2693 C.3     
  13 C13           -1.7778    -1.9094    -1.5579 C.3     
  14 O14           -0.4490    -3.1023     1.1712 O.3     
  15 N15           -0.7475    -3.7504     2.1473 N.2     
  16 C16           -1.9041    -3.3698     2.6383 C.2     
  17 C17           -2.3598    -2.3121     1.7987 C.2     
  18 C18           -1.3824    -2.1862     0.8744 C.2     
  19 S19           -4.1480    -3.3955     4.4583 S.3     
  20 C20           -4.0461    -4.5605     5.7051 C.2     
  21 N21           -2.9449    -5.2385     5.5990 N.2     
  22 C22           -2.1431    -4.9274     4.6042 C.2     
  23 C23           -2.5932    -3.9250     3.8208 C.2     
  24 O24           -4.9811    -4.7488     6.6664 O.3     
  25 C25           -4.7100    -5.6429     7.6542 C.ar    
  26 C26           -3.8340    -5.3041     8.6753 C.ar    
  27 C27           -3.5586    -6.2124     9.6786 C.ar    
  28 C28           -4.1578    -7.4633     9.6654 C.ar    
  29 C29           -5.0336    -7.8022     8.6446 C.ar    
  30 C30           -5.3136    -6.8919     7.6442 C.ar    
  31 O31           -3.8862    -8.3576    10.6530 O.3     
  32 C32           -4.5385    -9.6267    10.5764 C.3     
  33 C33           -4.1125   -10.4917    11.7643 C.3     
  34 C34           -4.7938   -11.8518    11.9281 C.3     
  35 C35           -3.3387   -11.7764    11.4613 C.3     
  36 H36            3.9918    -1.7829    -1.1963 H       
  37 H37            5.5505     0.1261    -1.2191 H       
  38 H38            4.7295     2.4040    -0.8160 H       
  39 H39            2.3370     2.8084    -0.3838 H       
  40 H40           -2.0289    -0.3804    -0.0612 H       
  41 H41           -1.0965    -2.7344    -1.7659 H       
  42 H42           -2.7905    -2.2951    -1.4406 H       
  43 H43           -1.7527    -1.2000    -2.3851 H       
  44 H44           -3.2741    -1.7433     1.8820 H       
  45 H45           -1.2041    -5.4314     4.4291 H       
  46 H46           -3.3672    -4.3302     8.6854 H       
  47 H47           -2.8764    -5.9487    10.4733 H       
  48 H48           -5.4998    -8.7763     8.6342 H       
  49 H49           -5.9989    -7.1542     6.8518 H       
  50 H50           -5.6186    -9.4822    10.6010 H       
  51 H51           -4.2595   -10.1231     9.6469 H       
  52 H52           -3.8499    -9.9478    12.6717 H       
  53 H53           -4.9790   -12.2029    12.9433 H       
  54 H54           -5.5455   -12.1304    11.1896 H       
  55 H55           -3.1331   -12.0053    10.4156 H       
  56 H56           -2.5667   -12.0778    12.1693 H       
@<TRIPOS>BOND
   1    1    2 am
   2    1    9 1
   3    1   10 2
   4    2    3 am
   5    2   12 1
   6    3    4 1
   7    3   11 2
   8    4    5 ar
   9    4    9 ar
  10    5    6 ar
  11    5   36 1
  12    6    7 ar
  13    6   37 1
  14    7    8 ar
  15    7   38 1
  16    8    9 ar
  17    8   39 1
  18   12   13 1
  19   12   18 1
  20   12   40 1
  21   13   41 1
  22   13   42 1
  23   13   43 1
  24   14   15 1
  25   14   18 1
  26   15   16 2
  27   16   17 1
  28   16   23 1
  29   17   18 2
  30   17   44 1
  31   19   20 1
  32   19   23 1
  33   20   21 2
  34   20   24 1
  35   21   22 1
  36   22   23 2
  37   22   45 1
  38   24   25 1
  39   25   26 ar
  40   25   30 ar
  41   26   27 ar
  42   26   46 1
  43   27   28 ar
  44   27   47 1
  45   28   29 ar
  46   28   31 1
  47   29   30 ar
  48   29   48 1
  49   30   49 1
  50   31   32 1
  51   32   33 1
  52   32   50 1
  53   32   51 1
  54   33   34 1
  55   33   35 1
  56   33   52 1
  57   34   35 1
  58   34   53 1
  59   34   54 1
  60   35   55 1
  61   35   56 1

#	End of record

