#	Name: ASD00990020
#	Creating user name:	WinNT
#	Creation time:	15. 06. 2019 18:54

#	Modifying user name:	WinNT
#	Modification time:	15. 06. 2019 18:54

#	Program:	/corina/corina34_cracker 3.40 0067  02.08.2006

@<TRIPOS>MOLECULE
ASD00990020
  62   66    0    0    0
SMALL
NO_CHARGES


@<TRIPOS>ATOM
   1 C1            -0.0166     1.3730     0.0096 C.ar    
   2 C2             0.0021    -0.0041     0.0020 C.ar    
   3 C3             1.2247    -0.6788    -0.0139 C.ar    
   4 C4             2.4124     0.0510    -0.0199 C.ar    
   5 C5             2.3811     1.4352    -0.0103 C.ar    
   6 C6             1.0900     3.6009     0.0052 C.3     
   7 C7             1.1692     2.0953     0.0021 C.ar    
   8 C8             3.6912     2.1790    -0.0112 C.3     
   9 N9             3.4890     3.5748    -0.4121 N.3     
  10 C10            2.4391     4.1941     0.4124 C.3     
  11 C11            1.2581    -2.1103    -0.0236 C.1     
  12 C12            4.7433     4.3345    -0.3251 C.3     
  13 C13            5.7365     3.7992    -1.3586 C.3     
  14 C14            7.0429     4.5904    -1.2680 C.3     
  15 C15            7.6983     4.3389     0.0914 C.3     
  16 C16            7.9901     4.1402    -2.3820 C.3     
  17 C17            9.2965     4.9315    -2.2914 C.3     
  18 C18            9.9519     4.6799    -0.9320 C.3     
  19 C19            9.0047     5.1301     0.1820 C.3     
  20 N20           10.2356     3.2503    -0.7837 N.am    
  21 C21           11.2192     2.8405     0.0415 C.2     
  22 C22           11.5040     1.4054     0.1904 C.2     
  23 O23           11.8715     3.6577     0.6633 O.2     
  24 C24           12.4618     0.8716     0.9926 C.2     
  25 N25           10.8362     0.3850    -0.4587 N.pl3   
  26 C26           11.3790    -0.8169    -0.0701 C.ar    
  27 C27           12.4099    -0.5359     0.8482 C.ar    
  28 C28           11.1001    -2.1397    -0.4016 C.ar    
  29 C29           11.8341    -3.1571     0.1664 C.ar    
  30 C30           12.8520    -2.8772     1.0691 C.ar    
  31 C31           13.1398    -1.5887     1.4146 C.ar    
  32 N32            1.2846    -3.2460    -0.0312 N.1     
  33 H33           -0.9617     1.8955     0.0169 H       
  34 H34           -0.9242    -0.5594     0.0087 H       
  35 H35            3.3609    -0.4654    -0.0317 H       
  36 H36            0.8262     3.9514    -0.9927 H       
  37 H37            0.3259     3.9216     0.7134 H       
  38 H38            4.1215     2.1510     0.9898 H       
  39 H39            4.3765     1.6996    -0.7103 H       
  40 H40            2.4309     5.2712     0.2459 H       
  41 H41            2.6283     3.9849     1.4653 H       
  42 H42            4.5447     5.3877    -0.5236 H       
  43 H43            5.1651     4.2263     0.6741 H       
  44 H44            5.9351     2.7460    -1.1601 H       
  45 H45            5.3147     3.9074    -2.3578 H       
  46 H46            6.8318     5.6541    -1.3783 H       
  47 H47            7.0235     4.6596     0.8851 H       
  48 H48            7.9093     3.2752     0.2018 H       
  49 H49            8.2012     3.0766    -2.2716 H       
  50 H50            7.5232     4.3195    -3.3504 H       
  51 H51            9.9713     4.6107    -3.0850 H       
  52 H52            9.0854     5.9951    -2.4017 H       
  53 H53           10.8826     5.2436    -0.8674 H       
  54 H54            8.7936     6.1938     0.0717 H       
  55 H55            9.4716     4.9509     1.1505 H       
  56 H56            9.7155     2.5987    -1.2794 H       
  57 H57           13.1413     1.4222     1.6262 H       
  58 H58           10.1044     0.4979    -1.0853 H       
  59 H59           10.3102    -2.3675    -1.1019 H       
  60 H60           11.6159    -4.1827    -0.0924 H       
  61 H61           13.4177    -3.6872     1.5055 H       
  62 H62           13.9297    -1.3811     2.1212 H       
@<TRIPOS>BOND
   1    1    2 ar
   2    1    7 ar
   3    1   33 1
   4    2    3 ar
   5    2   34 1
   6    3    4 ar
   7    3   11 1
   8    4    5 ar
   9    4   35 1
  10    5    8 1
  11    5    7 ar
  12    6    7 1
  13    6   10 1
  14    6   36 1
  15    6   37 1
  16    8    9 1
  17    8   38 1
  18    8   39 1
  19    9   10 1
  20    9   12 1
  21   10   40 1
  22   10   41 1
  23   11   32 3
  24   12   13 1
  25   12   42 1
  26   12   43 1
  27   13   14 1
  28   13   44 1
  29   13   45 1
  30   14   16 1
  31   14   15 1
  32   14   46 1
  33   15   19 1
  34   15   47 1
  35   15   48 1
  36   16   17 1
  37   16   49 1
  38   16   50 1
  39   17   18 1
  40   17   51 1
  41   17   52 1
  42   18   19 1
  43   18   20 1
  44   18   53 1
  45   19   54 1
  46   19   55 1
  47   20   21 am
  48   20   56 1
  49   21   22 1
  50   21   23 2
  51   22   25 1
  52   22   24 2
  53   24   27 1
  54   24   57 1
  55   25   26 1
  56   25   58 1
  57   26   28 ar
  58   26   27 ar
  59   27   31 ar
  60   28   29 ar
  61   28   59 1
  62   29   30 ar
  63   29   60 1
  64   30   31 ar
  65   30   61 1
  66   31   62 1

#	End of record

