#	Name: ASD02300003
#	Creating user name:	WinNT
#	Creation time:	15. 06. 2019 20:20

#	Modifying user name:	WinNT
#	Modification time:	15. 06. 2019 20:20

#	Program:	/corina/corina34_cracker 3.40 0067  02.08.2006

@<TRIPOS>MOLECULE
ASD02300003
  35   37    0    0    0
SMALL
NO_CHARGES


@<TRIPOS>ATOM
   1 C1             0.7595    -0.5418    -1.4685 C.ar    
   2 C2             0.3851    -0.8590    -0.1645 C.ar    
   3 C3             1.1750    -0.5246     0.8927 C.ar    
   4 C4             2.3869     0.1501     0.6693 C.ar    
   5 C5             2.7682     0.4724    -0.6576 C.ar    
   6 C6             1.9263     0.1112    -1.7234 C.ar    
   7 C7             3.2274     0.5115     1.7370 C.ar    
   8 C8             4.3935     1.1643     1.4861 C.ar    
   9 C9             4.7719     1.4833     0.1779 C.ar    
  10 C10            3.9794     1.1472    -0.8824 C.ar    
  11 O11            5.9432     2.1366    -0.0409 O.3     
  12 C12            7.0746     1.4108     0.0505 C.2     
  13 O13            7.0137     0.2102     0.2250 O.2     
  14 C14            8.3892     2.0751    -0.0616 C.ar    
  15 C15            9.5638     1.3259     0.0326 C.ar    
  16 C16           10.7881     1.9526    -0.0735 C.ar    
  17 C17           10.8538     3.3203    -0.2723 C.ar    
  18 C18            9.6938     4.0687    -0.3666 C.ar    
  19 C19            8.4628     3.4541    -0.2681 C.ar    
  20 N20            9.7740     5.5314    -0.5788 N.pl3   
  21 O21           10.8602     6.0749    -0.6703 O.2     
  22 O22            8.7538     6.1915    -0.6620 O.2     
  23 N23           12.0343     1.1601     0.0261 N.pl3   
  24 O24           11.9780    -0.0438     0.2015 O.2     
  25 O25           13.1161     1.7121    -0.0673 O.2     
  26 H26            0.1164    -0.8222    -2.2897 H       
  27 H27           -0.5460    -1.3776     0.0104 H       
  28 H28            0.8714    -0.7764     1.8981 H       
  29 H29            2.2037     0.3506    -2.7393 H       
  30 H30            2.9477     0.2719     2.7523 H       
  31 H31            5.0365     1.4407     2.3086 H       
  32 H32            4.2824     1.3987    -1.8881 H       
  33 H33            9.5139     0.2584     0.1885 H       
  34 H34           11.8150     3.8060    -0.3539 H       
  35 H35            7.5582     4.0394    -0.3419 H       
@<TRIPOS>BOND
   1    1    2 ar
   2    1    6 ar
   3    1   26 1
   4    2    3 ar
   5    2   27 1
   6    3    4 ar
   7    3   28 1
   8    4    5 ar
   9    4    7 ar
  10    5    6 ar
  11    5   10 ar
  12    6   29 1
  13    7    8 ar
  14    7   30 1
  15    8    9 ar
  16    8   31 1
  17    9   10 ar
  18    9   11 1
  19   10   32 1
  20   11   12 1
  21   12   13 2
  22   12   14 1
  23   14   15 ar
  24   14   19 ar
  25   15   16 ar
  26   15   33 1
  27   16   23 1
  28   16   17 ar
  29   17   18 ar
  30   17   34 1
  31   18   20 1
  32   18   19 ar
  33   19   35 1
  34   20   21 2
  35   20   22 2
  36   23   24 2
  37   23   25 2

#	End of record

