#	Name: ASD02500762
#	Creating user name:	WinNT
#	Creation time:	15. 06. 2019 20:23

#	Modifying user name:	WinNT
#	Modification time:	15. 06. 2019 20:23

#	Program:	/corina/corina34_cracker 3.40 0067  02.08.2006

@<TRIPOS>MOLECULE
ASD02500762
  56   59    0    0    0
SMALL
NO_CHARGES


@<TRIPOS>ATOM
   1 N1            -0.0179     1.4654     0.0101 N.am    
   2 C2             0.0021    -0.0041     0.0020 C.3     
   3 C3             0.8261    -0.4764    -1.2022 C.3     
   4 N4             2.1040     0.2493    -1.2105 N.am    
   5 C5             2.0841     1.7188    -1.2024 C.3     
   6 C6             1.2601     2.1912     0.0018 C.3     
   7 S7             3.5407    -0.5740    -1.2281 S.o2    
   8 O8             4.5153     0.3081    -0.6883 O.2     
   9 O9             3.2726    -1.8605    -0.6876 O.2     
  10 C10            5.4583    -0.3450    -7.6490 C.3     
  11 C11            6.5546     0.3821    -6.8599 C.3     
  12 C12            5.9255     0.9727    -5.5955 C.3     
  13 C13            5.0913    -0.0768    -4.9057 C.ar    
  14 C14            4.7433     0.1145    -3.5788 C.ar    
  15 C15            3.9775    -0.8248    -2.9166 C.ar    
  16 C16            3.5539    -1.9625    -3.5789 C.ar    
  17 C17            3.8982    -2.1589    -4.9004 C.ar    
  18 C18            4.6717    -1.2158    -5.5701 C.ar    
  19 O19            4.9980    -1.4487    -6.8680 O.3     
  20 C20            4.2972     0.6136    -7.9210 C.3     
  21 C21            6.0287    -0.8538    -8.9744 C.3     
  22 S22           -1.4546     2.2888     0.0214 S.o2    
  23 O23           -1.1840     3.5755    -0.5173 O.2     
  24 O24           -2.4267     1.4070    -0.5232 O.2     
  25 C25           -1.8991     2.5390     1.7080 C.ar    
  26 C26           -1.4780     3.6771     2.3737 C.ar    
  27 C27           -1.8279     3.8726     3.6992 C.ar    
  28 C28           -2.5973     2.9319     4.3573 C.ar    
  29 C29           -3.0184     1.7951     3.6936 C.ar    
  30 C30           -2.6745     1.6002     2.3664 C.ar    
  31 F31           -3.0913     0.4918     1.7161 F       
  32 F32           -0.7255     4.5966     1.7308 F       
  33 H33            0.4576    -0.3688     0.9227 H       
  34 H34           -1.0165    -0.3833    -0.0803 H       
  35 H35            1.0139    -1.5469    -1.1197 H       
  36 H36            0.2810    -0.2679    -2.1228 H       
  37 H37            3.1027     2.0980    -1.1201 H       
  38 H38            1.6286     2.0836    -2.1231 H       
  39 H39            1.0723     3.2617    -0.0807 H       
  40 H40            1.8051     1.9827     0.9224 H       
  41 H41            7.3387    -0.3234    -6.5849 H       
  42 H42            6.9763     1.1820    -7.4685 H       
  43 H43            6.7132     1.3102    -4.9221 H       
  44 H44            5.2933     1.8185    -5.8661 H       
  45 H45            5.0729     1.0022    -3.0594 H       
  46 H46            2.9536    -2.6967    -3.0621 H       
  47 H47            3.5666    -3.0477    -5.4167 H       
  48 H48            4.6563     1.4639    -8.5007 H       
  49 H49            3.5205     0.0936    -8.4816 H       
  50 H50            3.8878     0.9661    -6.9743 H       
  51 H51            6.8490    -1.5436    -8.7760 H       
  52 H52            5.2471    -1.3697    -9.5321 H       
  53 H53            6.3962    -0.0107    -9.5593 H       
  54 H54           -1.4991     4.7604     4.2190 H       
  55 H55           -2.8695     3.0851     5.3912 H       
  56 H56           -3.6194     1.0605     4.2089 H       
@<TRIPOS>BOND
   1    1    2 1
   2    1    6 1
   3    1   22 am
   4    2    3 1
   5    2   33 1
   6    2   34 1
   7    3    4 1
   8    3   35 1
   9    3   36 1
  10    4    5 1
  11    4    7 am
  12    5    6 1
  13    5   37 1
  14    5   38 1
  15    6   39 1
  16    6   40 1
  17    7    8 2
  18    7    9 2
  19    7   15 1
  20   10   11 1
  21   10   19 1
  22   10   20 1
  23   10   21 1
  24   11   12 1
  25   11   41 1
  26   11   42 1
  27   12   13 1
  28   12   43 1
  29   12   44 1
  30   13   14 ar
  31   13   18 ar
  32   14   15 ar
  33   14   45 1
  34   15   16 ar
  35   16   17 ar
  36   16   46 1
  37   17   18 ar
  38   17   47 1
  39   18   19 1
  40   20   48 1
  41   20   49 1
  42   20   50 1
  43   21   51 1
  44   21   52 1
  45   21   53 1
  46   22   23 2
  47   22   24 2
  48   22   25 1
  49   25   26 ar
  50   25   30 ar
  51   26   27 ar
  52   26   32 1
  53   27   28 ar
  54   27   54 1
  55   28   29 ar
  56   28   55 1
  57   29   30 ar
  58   29   56 1
  59   30   31 1

#	End of record

