#	Name: ASD01811716
#	Creating user name:	WinNT
#	Creation time:	15. 06. 2019 19:27

#	Modifying user name:	WinNT
#	Modification time:	15. 06. 2019 19:27

#	Program:	/corina/corina34_cracker 3.40 0067  02.08.2006

@<TRIPOS>MOLECULE
ASD01811716
  50   53    0    0    0
SMALL
NO_CHARGES


@<TRIPOS>ATOM
   1 C1             0.1118     1.4230     0.0129 C.ar    
   2 C2            -0.0216     0.0449    -0.0080 C.ar    
   3 C3             1.1019    -0.7630    -0.0110 C.ar    
   4 C4             2.3624    -0.2030     0.0065 C.ar    
   5 C5             2.5051     1.1857     0.0273 C.ar    
   6 C6             1.3644     1.9917     0.0305 C.ar    
   7 C7            -1.3942    -0.5769    -0.0272 C.3     
   8 C8             0.9476    -2.2619    -0.0328 C.3     
   9 C9             2.3032    -2.9045    -0.1757 C.ar    
  10 C10            2.9943    -3.3161     0.9479 C.ar    
  11 C11            4.2379    -3.9056     0.8183 C.ar    
  12 C12            4.7922    -4.0848    -0.4377 C.ar    
  13 C13            4.1005    -3.6732    -1.5641 C.ar    
  14 C14            2.8534    -3.0875    -1.4335 C.ar    
  15 F15            2.1772    -2.6854    -2.5318 F       
  16 F16            6.0078    -4.6606    -0.5640 F       
  17 C17            3.6914     2.0627     0.0487 C.2     
  18 N18            3.3166     3.3535     0.0641 N.am    
  19 C19            1.8508     3.4192     0.0542 C.3     
  20 O20            4.8430     1.6736     0.0525 O.2     
  21 C21            4.2222     4.5049     0.0868 C.3     
  22 C22            5.1130     4.4776    -1.1569 C.3     
  23 C23            6.0588     5.6800    -1.1331 C.3     
  24 C24            6.9324     5.6171     0.1214 C.3     
  25 C25            6.0416     5.6443     1.3650 C.3     
  26 C26            5.0958     4.4419     1.3413 C.3     
  27 O27            4.2971     4.5365    -2.3286 O.3     
  28 H28           -0.7668     2.0510     0.0110 H       
  29 H29            3.2366    -0.8371     0.0045 H       
  30 H30           -1.7510    -0.6382    -1.0554 H       
  31 H31           -1.3456    -1.5781     0.4008 H       
  32 H32           -2.0790     0.0360     0.5590 H       
  33 H33            0.4847    -2.5931     0.8968 H       
  34 H34            0.3183    -2.5501    -0.8749 H       
  35 H35            2.5627    -3.1767     1.9280 H       
  36 H36            4.7775    -4.2263     1.6972 H       
  37 H37            4.5321    -3.8126    -2.5443 H       
  38 H38            1.5055     3.9474    -0.8346 H       
  39 H39            1.4923     3.9222     0.9524 H       
  40 H40            3.6391     5.4257     0.0960 H       
  41 H41            5.6961     3.5568    -1.1660 H       
  42 H42            6.6934     5.6607    -2.0191 H       
  43 H43            5.4757     6.6009    -1.1240 H       
  44 H44            7.5155     4.6962     0.1122 H       
  45 H45            7.6062     6.4737     0.1383 H       
  46 H46            6.6640     5.5994     2.2588 H       
  47 H47            5.4585     6.5651     1.3742 H       
  48 H48            4.4612     4.4613     2.2273 H       
  49 H49            5.6789     3.5210     1.3321 H       
  50 H50            4.7964     4.5231    -3.1566 H       
@<TRIPOS>BOND
   1    1    2 ar
   2    1    6 ar
   3    1   28 1
   4    2    3 ar
   5    2    7 1
   6    3    4 ar
   7    3    8 1
   8    4    5 ar
   9    4   29 1
  10    5    6 ar
  11    5   17 1
  12    6   19 1
  13    7   30 1
  14    7   31 1
  15    7   32 1
  16    8    9 1
  17    8   33 1
  18    8   34 1
  19    9   10 ar
  20    9   14 ar
  21   10   11 ar
  22   10   35 1
  23   11   12 ar
  24   11   36 1
  25   12   13 ar
  26   12   16 1
  27   13   14 ar
  28   13   37 1
  29   14   15 1
  30   17   18 am
  31   17   20 2
  32   18   19 1
  33   18   21 1
  34   19   38 1
  35   19   39 1
  36   21   22 1
  37   21   26 1
  38   21   40 1
  39   22   23 1
  40   22   27 1
  41   22   41 1
  42   23   24 1
  43   23   42 1
  44   23   43 1
  45   24   25 1
  46   24   44 1
  47   24   45 1
  48   25   26 1
  49   25   46 1
  50   25   47 1
  51   26   48 1
  52   26   49 1
  53   27   50 1

#	End of record

