#	Name: ASD03330195
#	Creating user name:	WinNT
#	Creation time:	15. 06. 2019 20:36

#	Modifying user name:	WinNT
#	Modification time:	15. 06. 2019 20:36

#	Program:	/corina/corina34_cracker 3.40 0067  02.08.2006

@<TRIPOS>MOLECULE
ASD03330195
  76   80    0    0    0
SMALL
NO_CHARGES


@<TRIPOS>ATOM
   1 C1            -0.7456     0.9775    -1.0952 C.2     
   2 C2            -0.7437    -0.1813    -0.3782 C.2     
   3 C3             0.3841     1.7536    -0.9392 C.2     
   4 C4             1.3222     1.2226    -0.0836 C.2     
   5 S5             0.7470    -0.3158     0.5433 S.3     
   6 C6             2.6139     1.8494     0.2563 C.ar    
   7 C7             3.4555     2.3160    -0.7566 C.ar    
   8 C8             4.6611     2.9011    -0.4324 C.ar    
   9 C9             5.0395     3.0269     0.8944 C.ar    
  10 C10            4.2112     2.5666     1.9037 C.ar    
  11 C11            2.9986     1.9843     1.5935 C.ar    
  12 C12            0.5720     3.0493    -1.6347 C.ar    
  13 C13            0.4769     3.1168    -3.0241 C.ar    
  14 C14            0.8385     4.2042    -0.9004 C.ar    
  15 C15            1.0128     5.4080    -1.5505 C.ar    
  16 C16            0.9227     5.4707    -2.9343 C.ar    
  17 C17            0.6522     4.3238    -3.6680 C.ar    
  18 C18           -1.8256    -1.1696    -0.3752 C.2     
  19 O19           -2.9855    -0.8020    -0.3447 O.2     
  20 N20           -1.5364    -2.4856    -0.4062 N.am    
  21 Cl21           1.9606     1.4080     2.8601 Cl      
  22 O22            1.0941     6.6588    -3.5718 O.3     
  23 O23            1.3017     9.3829    -7.5573 O.3     
  24 C24           -2.6082    -3.4855    -0.5066 C.3     
  25 C25           -2.3126    -4.4077    -1.6936 C.3     
  26 C26           -0.9112    -5.0022    -1.5359 C.3     
  27 C27            0.1248    -3.8758    -1.5296 C.3     
  28 C28           -0.1428    -2.9473    -0.3464 C.3     
  29 C29           -0.8322    -5.7642    -0.2382 C.2     
  30 O30           -0.3666    -5.2347     0.7486 O.2     
  31 N31           -1.2790    -7.0342    -0.1741 N.am    
  32 Cl32           6.5596     3.7646     1.2930 Cl      
  33 N33           -0.6371    -5.9130    -2.6554 N.3     
  34 C34            0.7021    -6.5037    -2.5375 C.3     
  35 C35            0.8969    -7.5524    -3.6349 C.3     
  36 C36            0.7305    -6.8880    -5.0043 C.3     
  37 C37           -0.6541    -6.2390    -5.0831 C.3     
  38 C38           -0.8039    -5.2283    -3.9438 C.3     
  39 F39            1.7159    -5.9092    -5.1719 F       
  40 F40            0.8525    -7.8529    -6.0100 F       
  41 C41            1.0954     8.0601    -7.0576 C.3     
  42 C42            1.2089     8.0678    -5.5319 C.3     
  43 C43            0.9881     6.6516    -4.9968 C.3     
  44 H44           -1.5648     1.2635    -1.7382 H       
  45 H45            3.1625     2.2182    -1.7915 H       
  46 H46            5.3122     3.2621    -1.2147 H       
  47 H47            4.5123     2.6674     2.9360 H       
  48 H48            0.2664     2.2248    -3.5955 H       
  49 H49            0.9081     4.1562     0.1763 H       
  50 H50            1.2193     6.3030    -0.9823 H       
  51 H51            0.5828     4.3760    -4.7445 H       
  52 H52            1.2439     9.4532    -8.5200 H       
  53 H53           -2.6477    -4.0723     0.4111 H       
  54 H54           -3.5629    -2.9833    -0.6630 H       
  55 H55           -3.0479    -5.2118    -1.7214 H       
  56 H56           -2.3630    -3.8357    -2.6201 H       
  57 H57            1.1244    -4.3014    -1.4408 H       
  58 H58            0.0515    -3.3089    -2.4576 H       
  59 H59            0.5296    -2.0908    -0.3947 H       
  60 H60            0.0175    -3.4883     0.5862 H       
  61 H61           -1.6514    -7.4577    -0.9634 H       
  62 H62           -1.2282    -7.5247     0.6612 H       
  63 H63            1.4544    -5.7223    -2.6442 H       
  64 H64            0.8058    -6.9765    -1.5608 H       
  65 H65            1.8967    -7.9796    -3.5567 H       
  66 H66            0.1535    -8.3414    -3.5204 H       
  67 H67           -0.7624    -5.7277    -6.0397 H       
  68 H68           -1.4219    -7.0072    -4.9915 H       
  69 H69           -1.7941    -4.7748    -3.9885 H       
  70 H70           -0.0445    -4.4529    -4.0439 H       
  71 H71            0.1033     7.7132    -7.3464 H       
  72 H72            1.8494     7.3925    -7.4747 H       
  73 H73            2.2011     8.4147    -5.2431 H       
  74 H74            0.4550     8.7355    -5.1148 H       
  75 H75            1.7420     5.9839    -5.4139 H       
  76 H76           -0.0041     6.3047    -5.2856 H       
@<TRIPOS>BOND
   1    1    2 2
   2    1    3 1
   3    1   44 1
   4    2   18 1
   5    2    5 1
   6    3    4 2
   7    3   12 1
   8    4    5 1
   9    4    6 1
  10    6    7 ar
  11    6   11 ar
  12    7    8 ar
  13    7   45 1
  14    8    9 ar
  15    8   46 1
  16    9   10 ar
  17    9   32 1
  18   10   11 ar
  19   10   47 1
  20   11   21 1
  21   12   13 ar
  22   12   14 ar
  23   13   17 ar
  24   13   48 1
  25   14   15 ar
  26   14   49 1
  27   15   16 ar
  28   15   50 1
  29   16   17 ar
  30   16   22 1
  31   17   51 1
  32   18   19 2
  33   18   20 am
  34   20   24 1
  35   20   28 1
  36   22   43 1
  37   23   41 1
  38   23   52 1
  39   24   25 1
  40   24   53 1
  41   24   54 1
  42   25   26 1
  43   25   55 1
  44   25   56 1
  45   26   27 1
  46   26   29 1
  47   26   33 1
  48   27   28 1
  49   27   57 1
  50   27   58 1
  51   28   59 1
  52   28   60 1
  53   29   30 2
  54   29   31 am
  55   31   61 1
  56   31   62 1
  57   33   34 1
  58   33   38 1
  59   34   35 1
  60   34   63 1
  61   34   64 1
  62   35   36 1
  63   35   65 1
  64   35   66 1
  65   36   37 1
  66   36   39 1
  67   36   40 1
  68   37   38 1
  69   37   67 1
  70   37   68 1
  71   38   69 1
  72   38   70 1
  73   41   42 1
  74   41   71 1
  75   41   72 1
  76   42   43 1
  77   42   73 1
  78   42   74 1
  79   43   75 1
  80   43   76 1

#	End of record

