#	Name: ASD01811560
#	Creating user name:	WinNT
#	Creation time:	15. 06. 2019 19:26

#	Modifying user name:	WinNT
#	Modification time:	15. 06. 2019 19:26

#	Program:	/corina/corina34_cracker 3.40 0067  02.08.2006

@<TRIPOS>MOLECULE
ASD01811560
  64   68    0    0    0
SMALL
NO_CHARGES


@<TRIPOS>ATOM
   1 C1            -7.6539     2.4750    -4.1275 C.1     
   2 C2            -6.6440     3.2271    -3.4456 C.ar    
   3 C3            -5.4800     2.5966    -3.0013 C.ar    
   4 C4            -4.5112     3.3271    -2.3450 C.ar    
   5 C5            -4.6910     4.6814    -2.1263 C.ar    
   6 C6            -5.8421     5.3125    -2.5634 C.ar    
   7 C7            -6.8161     4.5954    -3.2270 C.ar    
   8 N8            -8.4551     1.8784    -4.6684 N.1     
   9 N9            -2.5316     7.8383    -0.3121 N.am    
  10 C10           -2.0124     7.3676    -1.6034 C.3     
  11 C11           -3.1165     6.5871    -2.3238 C.3     
  12 C12           -3.6284     5.4728    -1.4082 C.3     
  13 C13           -4.2208     6.0861    -0.1374 C.3     
  14 C14           -3.1293     6.8608     0.6077 C.3     
  15 C15           -2.4558     9.1411     0.0248 C.2     
  16 C16           -3.0588     9.6140     1.2893 C.ar    
  17 C17           -3.9985    10.6474     1.2733 C.ar    
  18 C18           -4.5622    11.0900     2.4532 C.ar    
  19 C19           -4.2014    10.5155     3.6562 C.ar    
  20 C20           -3.2633     9.4820     3.6864 C.ar    
  21 C21           -2.6951     9.0262     2.4989 C.ar    
  22 O22           -1.8918     9.9273    -0.7110 O.2     
  23 C23           -4.8213    11.0059     4.9393 C.3     
  24 C24           -4.3975    11.2807    -0.0346 C.3     
  25 C25           -2.8778     8.8683     4.9760 C.2     
  26 N26           -1.8972     7.9334     5.1550 N.pl3   
  27 C27           -1.8707     7.6397     6.4842 C.2     
  28 C28           -2.8221     8.3929     7.0818 C.2     
  29 N29           -3.4171     9.1341     6.1472 N.2     
  30 C30           -3.1116     8.3645     8.5628 C.3     
  31 C31           -1.9244     7.7063     9.2760 C.3     
  32 C32           -1.5829     6.3825     8.5863 C.3     
  33 C33           -0.9747     6.6675     7.2073 C.3     
  34 O34           -0.6416     5.6596     9.3821 O.3     
  35 H35           -5.3387     1.5393    -3.1708 H       
  36 H36           -3.6104     2.8407    -2.0009 H       
  37 H37           -5.9762     6.3698    -2.3891 H       
  38 H38           -7.7120     5.0902    -3.5719 H       
  39 H39           -1.7134     8.2221    -2.2105 H       
  40 H40           -1.1541     6.7168    -1.4369 H       
  41 H41           -3.9369     7.2611    -2.5703 H       
  42 H42           -2.7159     6.1509    -3.2388 H       
  43 H43           -2.8023     4.8134    -1.1419 H       
  44 H44           -5.0309     6.7648    -0.4045 H       
  45 H45           -4.6063     5.2933     0.5037 H       
  46 H46           -2.3620     6.1687     0.9546 H       
  47 H47           -3.5673     7.3810     1.4596 H       
  48 H48           -5.2883    11.8892     2.4354 H       
  49 H49           -1.9726     8.2237     2.5164 H       
  50 H50           -5.6663    10.3691     5.2012 H       
  51 H51           -4.0796    10.9718     5.7374 H       
  52 H52           -5.1663    12.0314     4.8075 H       
  53 H53           -5.1882    10.6906    -0.4978 H       
  54 H54           -4.7585    12.2930     0.1471 H       
  55 H55           -3.5342    11.3167    -0.6991 H       
  56 H56           -1.3294     7.5521     4.4672 H       
  57 H57           -3.2424     9.3821     8.9308 H       
  58 H58           -4.0173     7.7872     8.7487 H       
  59 H59           -1.0615     8.3709     9.2337 H       
  60 H60           -2.1858     7.5166    10.3170 H       
  61 H61           -2.4900     5.7898     8.4680 H       
  62 H62           -0.9043     5.7403     6.6385 H       
  63 H63            0.0179     7.1019     7.3264 H       
  64 H64           -0.3794     4.8086     9.0051 H       
@<TRIPOS>BOND
   1    1    2 1
   2    1    8 3
   3    2    3 ar
   4    2    7 ar
   5    3    4 ar
   6    3   35 1
   7    4    5 ar
   8    4   36 1
   9    5    6 ar
  10    5   12 1
  11    6    7 ar
  12    6   37 1
  13    7   38 1
  14    9   10 1
  15    9   14 1
  16    9   15 am
  17   10   11 1
  18   10   39 1
  19   10   40 1
  20   11   12 1
  21   11   41 1
  22   11   42 1
  23   12   13 1
  24   12   43 1
  25   13   14 1
  26   13   44 1
  27   13   45 1
  28   14   46 1
  29   14   47 1
  30   15   16 1
  31   15   22 2
  32   16   17 ar
  33   16   21 ar
  34   17   18 ar
  35   17   24 1
  36   18   19 ar
  37   18   48 1
  38   19   20 ar
  39   19   23 1
  40   20   21 ar
  41   20   25 1
  42   21   49 1
  43   23   50 1
  44   23   51 1
  45   23   52 1
  46   24   53 1
  47   24   54 1
  48   24   55 1
  49   25   26 1
  50   25   29 2
  51   26   27 1
  52   26   56 1
  53   27   28 2
  54   27   33 1
  55   28   29 1
  56   28   30 1
  57   30   31 1
  58   30   57 1
  59   30   58 1
  60   31   32 1
  61   31   59 1
  62   31   60 1
  63   32   33 1
  64   32   34 1
  65   32   61 1
  66   33   62 1
  67   33   63 1
  68   34   64 1

#	End of record

