#	Name: ASD01840093
#	Creating user name:	WinNT
#	Creation time:	15. 06. 2019 19:37

#	Modifying user name:	WinNT
#	Modification time:	15. 06. 2019 19:37

#	Program:	/corina/corina34_cracker 3.40 0067  02.08.2006

@<TRIPOS>MOLECULE
ASD01840093
  51   54    0    0    0
SMALL
NO_CHARGES


@<TRIPOS>ATOM
   1 C1             0.0192     1.3233     0.0691 C.ar    
   2 N2             0.3427     0.4968     1.0526 N.ar    
   3 C3             1.4924    -0.1534     1.0493 C.ar    
   4 N4             2.3694    -0.0184     0.0817 N.ar    
   5 C5             0.9312     1.5060    -1.0018 C.ar    
   6 C6             0.8357     2.3352    -2.1885 C.2     
   7 C7             2.1329     0.7941    -0.9560 C.ar    
   8 S8             3.0978     1.1735    -2.3751 S.3     
   9 C9             1.8778     2.2703    -2.9943 C.2     
  10 C10           -0.3617     3.2032    -2.4781 C.3     
  11 C11            2.0039     3.0407    -4.2833 C.3     
  12 N12           -1.1910     1.9931     0.0835 N.3     
  13 C13           -2.3140     1.0530    -0.0237 C.3     
  14 C14           -3.6241     1.8337    -0.1511 C.3     
  15 C15           -3.8000     2.7300     1.0778 C.3     
  16 C16           -2.5939     3.6663     1.1937 C.3     
  17 C17           -1.3137     2.8325     1.2821 C.3     
  18 C18           -5.0585     3.5458     0.9301 C.2     
  19 O19           -5.0025     4.6711     0.4811 O.2     
  20 N20           -6.2461     3.0250     1.2971 N.am    
  21 C21           -7.2996     0.8281     1.1625 C.3     
  22 C22           -6.3181     1.7076     1.9435 C.3     
  23 C23           -7.4929     3.7666     1.0639 C.3     
  24 C24           -8.4636     2.8683     0.2908 C.3     
  25 C25           -8.6478     1.5517     1.0490 C.3     
  26 F26           -6.7919     0.5857    -0.1184 F       
  27 F27           -7.4740    -0.3868     1.8339 F       
  28 H28            1.7187    -0.8179     1.8701 H       
  29 H29           -0.2501     4.1588    -1.9659 H       
  30 H30           -0.4359     3.3732    -3.5522 H       
  31 H31           -1.2651     2.7054    -2.1257 H       
  32 H32            2.4752     4.0036    -4.0864 H       
  33 H33            2.6142     2.4745    -4.9868 H       
  34 H34            1.0134     3.2014    -4.7090 H       
  35 H35           -2.1788     0.4244    -0.9039 H       
  36 H36           -2.3497     0.4267     0.8677 H       
  37 H37           -3.5947     2.4498    -1.0497 H       
  38 H38           -4.4589     1.1357    -0.2149 H       
  39 H39           -3.8685     2.1118     1.9729 H       
  40 H40           -2.5483     4.3113     0.3162 H       
  41 H41           -2.6927     4.2776     2.0907 H       
  42 H42           -1.3541     2.1978     2.1674 H       
  43 H43           -0.4519     3.4963     1.3504 H       
  44 H44           -5.3312     1.2449     1.9411 H       
  45 H45           -6.6675     1.8226     2.9696 H       
  46 H46           -7.9361     4.0461     2.0197 H       
  47 H47           -7.2813     4.6629     0.4808 H       
  48 H48           -9.4262     3.3706     0.1949 H       
  49 H49           -8.0591     2.6637    -0.7004 H       
  50 H50           -9.3561     0.9183     0.5151 H       
  51 H51           -9.0313     1.7637     2.0471 H       
@<TRIPOS>BOND
   1    1    2 ar
   2    1    5 ar
   3    1   12 1
   4    2    3 ar
   5    3    4 ar
   6    3   28 1
   7    4    7 ar
   8    5    7 ar
   9    5    6 1
  10    6    9 2
  11    6   10 1
  12    7    8 1
  13    8    9 1
  14    9   11 1
  15   10   29 1
  16   10   30 1
  17   10   31 1
  18   11   32 1
  19   11   33 1
  20   11   34 1
  21   12   13 1
  22   12   17 1
  23   13   14 1
  24   13   35 1
  25   13   36 1
  26   14   15 1
  27   14   37 1
  28   14   38 1
  29   15   16 1
  30   15   18 1
  31   15   39 1
  32   16   17 1
  33   16   40 1
  34   16   41 1
  35   17   42 1
  36   17   43 1
  37   18   19 2
  38   18   20 am
  39   20   23 1
  40   20   22 1
  41   21   22 1
  42   21   25 1
  43   21   26 1
  44   21   27 1
  45   22   44 1
  46   22   45 1
  47   23   24 1
  48   23   46 1
  49   23   47 1
  50   24   25 1
  51   24   48 1
  52   24   49 1
  53   25   50 1
  54   25   51 1

#	End of record

