#	Name: ASD03090877
#	Creating user name:	WinNT
#	Creation time:	15. 06. 2019 20:29

#	Modifying user name:	WinNT
#	Modification time:	15. 06. 2019 20:29

#	Program:	/corina/corina34_cracker 3.40 0067  02.08.2006

@<TRIPOS>MOLECULE
ASD03090877
  55   58    0    0    0
SMALL
NO_CHARGES


@<TRIPOS>ATOM
   1 N1             0.0194     2.3236     0.2983 N.am    
   2 C2            -0.3302     1.0682     0.6422 C.2     
   3 O3            -1.5021     0.7922     0.8320 O.2     
   4 N4             0.6079     0.1261     0.7749 N.2     
   5 S5            -1.3410    -1.7809     1.0345 S.3     
   6 C6             0.2554    -1.1356     1.0102 C.2     
   7 N7             1.0798    -2.1790     1.2802 N.pl3   
   8 C8             0.4929    -3.3899     1.4889 C.2     
   9 C9            -0.8303    -3.4359     1.4087 C.2     
  10 C10           -1.7136    -4.6424     1.5959 C.3     
  11 O11            6.5472    -1.5987     1.7742 O.3     
  12 C12            6.6874    -2.2619     3.0445 C.3     
  13 O13            5.3882    -2.1214     3.6491 O.3     
  14 C14            4.5106    -2.0204     2.6083 C.ar    
  15 C15            5.2231    -1.6990     1.4548 C.ar    
  16 C16            3.1367    -2.1791     2.5489 C.ar    
  17 C17            2.4712    -2.0180     1.3410 C.ar    
  18 C18            3.1836    -1.6980     0.1935 C.ar    
  19 C19            4.5554    -1.5398     0.2516 C.ar    
  20 F20            7.0011    -3.6129     2.8618 F       
  21 F21            7.6629    -1.6305     3.8236 F       
  22 C22            1.4343     2.6807     0.1697 C.3     
  23 C23            2.0836     1.8120    -0.9095 C.3     
  24 C24            1.5547     4.1550    -0.2216 C.3     
  25 C25            2.1425     2.4483     1.5059 C.3     
  26 C26           -1.0157     3.3294     0.0472 C.3     
  27 C27           -1.4622     3.9283     1.3560 C.ar    
  28 C28           -0.9160     5.1207     1.7926 C.ar    
  29 C29           -1.3255     5.6700     2.9932 C.ar    
  30 C30           -2.2816     5.0271     3.7570 C.ar    
  31 C31           -2.8285     3.8351     3.3200 C.ar    
  32 C32           -2.4221     3.2880     2.1173 C.ar    
  33 H33            1.0771    -4.2711     1.7092 H       
  34 H34           -2.7564    -4.3531     1.4651 H       
  35 H35           -1.4522    -5.4020     0.8592 H       
  36 H36           -1.5713    -5.0448     2.5988 H       
  37 H37            2.5826    -2.4286     3.4418 H       
  38 H38            2.6655    -1.5728    -0.7458 H       
  39 H39            5.1075    -1.2903    -0.6424 H       
  40 H40            1.6113     2.0135    -1.8710 H       
  41 H41            3.1469     2.0437    -0.9714 H       
  42 H42            1.9552     0.7599    -0.6550 H       
  43 H43            1.0472     4.7706     0.5211 H       
  44 H44            2.6074     4.4341    -0.2668 H       
  45 H45            1.0953     4.3105    -1.1977 H       
  46 H46            2.1389     1.3834     1.7386 H       
  47 H47            3.1713     2.8019     1.4382 H       
  48 H48            1.6218     2.9939     2.2928 H       
  49 H49           -0.6121     4.1142    -0.5926 H       
  50 H50           -1.8665     2.8598    -0.4465 H       
  51 H51           -0.1690     5.6230     1.1958 H       
  52 H52           -0.8982     6.6013     3.3346 H       
  53 H53           -2.6011     5.4559     4.6954 H       
  54 H54           -3.5752     3.3327     3.9170 H       
  55 H55           -2.8521     2.3587     1.7742 H       
@<TRIPOS>BOND
   1    1    2 am
   2    1   22 1
   3    1   26 1
   4    2    3 2
   5    2    4 1
   6    4    6 2
   7    5    6 1
   8    5    9 1
   9    6    7 1
  10    7    8 1
  11    7   17 1
  12    8    9 2
  13    8   33 1
  14    9   10 1
  15   10   34 1
  16   10   35 1
  17   10   36 1
  18   11   12 1
  19   11   15 1
  20   12   13 1
  21   12   20 1
  22   12   21 1
  23   13   14 1
  24   14   15 ar
  25   14   16 ar
  26   15   19 ar
  27   16   17 ar
  28   16   37 1
  29   17   18 ar
  30   18   19 ar
  31   18   38 1
  32   19   39 1
  33   22   23 1
  34   22   25 1
  35   22   24 1
  36   23   40 1
  37   23   41 1
  38   23   42 1
  39   24   43 1
  40   24   44 1
  41   24   45 1
  42   25   46 1
  43   25   47 1
  44   25   48 1
  45   26   27 1
  46   26   49 1
  47   26   50 1
  48   27   28 ar
  49   27   32 ar
  50   28   29 ar
  51   28   51 1
  52   29   30 ar
  53   29   52 1
  54   30   31 ar
  55   30   53 1
  56   31   32 ar
  57   31   54 1
  58   32   55 1

#	End of record

