#	Name: ASD01231322
#	Creating user name:	WinNT
#	Creation time:	15. 06. 2019 19:15

#	Modifying user name:	WinNT
#	Modification time:	15. 06. 2019 19:15

#	Program:	/corina/corina34_cracker 3.40 0067  02.08.2006

@<TRIPOS>MOLECULE
ASD01231322
  49   51    0    0    0
SMALL
NO_CHARGES


@<TRIPOS>ATOM
   1 C1             0.9511    -0.4932    -0.2679 C.3     
   2 C2             0.8369    -1.6692     0.7042 C.3     
   3 C3             1.8326    -2.7599     0.3044 C.3     
   4 S4             1.2060    -1.1009     2.3869 S.o2    
   5 O5             0.8956    -2.1133     3.3345 O.2     
   6 O6             2.4542    -0.4228     2.4216 O.2     
   7 N7             0.0882     0.0862     2.6766 N.am    
   8 C8            -1.3363    -0.2494     2.7424 C.3     
   9 C9            -1.7659    -0.4766     4.2074 C.3     
  10 C10           -2.2598     0.9237     4.6287 C.3     
  11 C11           -2.7039     1.5901     3.3442 C.ar    
  12 C12           -3.5087     2.6986     3.1399 C.ar    
  13 C13           -3.7822     3.1320     1.8575 C.ar    
  14 C14           -3.2515     2.4578     0.7734 C.ar    
  15 C15           -2.4488     1.3523     0.9751 C.ar    
  16 C16           -2.1733     0.9161     2.2604 C.ar    
  17 C17           -4.6588     4.3384     1.6399 C.3     
  18 C18           -3.8054     5.5800     1.6068 C.ar    
  19 C19           -3.2853     6.0295     0.4073 C.ar    
  20 C20           -2.5025     7.1682     0.3769 C.ar    
  21 C21           -2.2401     7.8581     1.5460 C.ar    
  22 C22           -2.7608     7.4093     2.7450 C.ar    
  23 C23           -3.5474     6.2726     2.7747 C.ar    
  24 C24           -1.9348     7.6576    -0.9305 C.3     
  25 F25           -2.8368     8.5447    -1.5277 F       
  26 F26           -0.7217     8.3138    -0.6956 F       
  27 F27           -1.7187     6.5687    -1.7818 F       
  28 H28            1.9636    -0.0910    -0.2341 H       
  29 H29            0.7293    -0.8348    -1.2789 H       
  30 H30            0.2418     0.2838     0.0170 H       
  31 H31           -0.1756    -2.0715     0.6705 H       
  32 H32            2.8451    -2.3577     0.3381 H       
  33 H33            1.7512    -3.5977     0.9969 H       
  34 H34            1.6108    -3.1015    -0.7067 H       
  35 H35            0.3767     1.0036     2.8027 H       
  36 H36           -1.5430    -1.1378     2.1456 H       
  37 H37           -2.5736    -1.2062     4.2656 H       
  38 H38           -0.9169    -0.7874     4.8163 H       
  39 H39           -3.0986     0.8369     5.3193 H       
  40 H40           -1.4483     1.4889     5.0871 H       
  41 H41           -3.9239     3.2256     3.9862 H       
  42 H42           -3.4646     2.7952    -0.2302 H       
  43 H43           -2.0345     0.8261     0.1278 H       
  44 H44           -5.1888     4.2364     0.6929 H       
  45 H45           -5.3801     4.4149     2.4536 H       
  46 H46           -3.4903     5.4906    -0.5060 H       
  47 H47           -1.6279     8.7475     1.5223 H       
  48 H48           -2.5555     7.9479     3.6582 H       
  49 H49           -3.9574     5.9240     3.7111 H       
@<TRIPOS>BOND
   1    1    2 1
   2    1   28 1
   3    1   29 1
   4    1   30 1
   5    2    3 1
   6    2    4 1
   7    2   31 1
   8    3   32 1
   9    3   33 1
  10    3   34 1
  11    4    5 2
  12    4    6 2
  13    4    7 am
  14    7    8 1
  15    7   35 1
  16    8    9 1
  17    8   16 1
  18    8   36 1
  19    9   10 1
  20    9   37 1
  21    9   38 1
  22   10   11 1
  23   10   39 1
  24   10   40 1
  25   11   12 ar
  26   11   16 ar
  27   12   13 ar
  28   12   41 1
  29   13   14 ar
  30   13   17 1
  31   14   15 ar
  32   14   42 1
  33   15   16 ar
  34   15   43 1
  35   17   18 1
  36   17   44 1
  37   17   45 1
  38   18   19 ar
  39   18   23 ar
  40   19   20 ar
  41   19   46 1
  42   20   21 ar
  43   20   24 1
  44   21   22 ar
  45   21   47 1
  46   22   23 ar
  47   22   48 1
  48   23   49 1
  49   24   25 1
  50   24   26 1
  51   24   27 1

#	End of record

