#	Name: ASD02508078
#	Creating user name:	WinNT
#	Creation time:	15. 06. 2019 20:23

#	Modifying user name:	WinNT
#	Modification time:	15. 06. 2019 20:23

#	Program:	/corina/corina34_cracker 3.40 0067  02.08.2006

@<TRIPOS>MOLECULE
ASD02508078
  33   35    0    0    0
SMALL
NO_CHARGES


@<TRIPOS>ATOM
   1 C1             0.0190     1.4443    -0.1158 C.ar    
   2 C2             0.0161     0.0670     0.0447 C.ar    
   3 C3             1.2245     2.1316    -0.2505 C.ar    
   4 C4             2.4223     1.4344    -0.2240 C.ar    
   5 C5             2.4168     0.0573    -0.0637 C.ar    
   6 C6             1.2115    -0.6259     0.0710 C.ar    
   7 N7            -0.9958     2.4019    -0.1869 N.am    
   8 C8            -0.4073     3.6032    -0.3507 C.2     
   9 O9             0.9251     3.4468    -0.3905 O.3     
  10 N10            3.6265    -0.6480    -0.0368 N.am    
  11 S11            4.9628     0.0269     0.6711 S.o2    
  12 C12            4.5840     0.2696     2.3747 C.ar    
  13 C13            4.8557    -0.7292     3.2937 C.ar    
  14 O14           -0.9931     4.6642    -0.4510 O.2     
  15 O15            5.9838    -0.9603     0.6237 O.2     
  16 F16            1.2103    -1.9678     0.2274 F       
  17 C17            4.0199     1.4614     2.7959 C.ar    
  18 C18            3.7231     1.6511     4.1351 C.ar    
  19 C19            3.9899     0.6511     5.0510 C.ar    
  20 C20            4.5580    -0.5372     4.6324 C.ar    
  21 O21            5.1068     1.3217     0.1037 O.2     
  22 C22           -2.4357     2.1468    -0.0993 C.3     
  23 F23            3.7594     2.4392     1.9009 F       
  24 F24            5.4105    -1.8912     2.8848 F       
  25 H25           -0.9188    -0.4634     0.1492 H       
  26 H26            3.3583     1.9630    -0.3284 H       
  27 H27            3.6816    -1.5317    -0.4329 H       
  28 H28            3.2833     2.5811     4.4640 H       
  29 H29            3.7581     0.8000     6.0953 H       
  30 H30            4.7657    -1.3181     5.3490 H       
  31 H31           -2.7519     2.2026     0.9423 H       
  32 H32           -2.9732     2.8943    -0.6828 H       
  33 H33           -2.6534     1.1537    -0.4924 H       
@<TRIPOS>BOND
   1    1    2 ar
   2    1    3 ar
   3    1    7 1
   4    2    6 ar
   5    2   25 1
   6    3    4 ar
   7    3    9 1
   8    4    5 ar
   9    4   26 1
  10    5    6 ar
  11    5   10 1
  12    6   16 1
  13    7    8 am
  14    7   22 1
  15    8    9 1
  16    8   14 2
  17   10   11 am
  18   10   27 1
  19   11   12 1
  20   11   15 2
  21   11   21 2
  22   12   13 ar
  23   12   17 ar
  24   13   24 1
  25   13   20 ar
  26   17   18 ar
  27   17   23 1
  28   18   19 ar
  29   18   28 1
  30   19   20 ar
  31   19   29 1
  32   20   30 1
  33   22   31 1
  34   22   32 1
  35   22   33 1

#	End of record

