#	Name: ASD01850055
#	Creating user name:	WinNT
#	Creation time:	15. 06. 2019 19:38

#	Modifying user name:	WinNT
#	Modification time:	15. 06. 2019 19:38

#	Program:	/corina/corina34_cracker 3.40 0067  02.08.2006

@<TRIPOS>MOLECULE
ASD01850055
  60   62    0    0    0
SMALL
NO_CHARGES


@<TRIPOS>ATOM
   1 C1             3.4268     5.4540     2.9107 C.ar    
   2 C2             3.7046     6.8043     2.8087 C.ar    
   3 C3             3.6323     7.4340     1.5803 C.ar    
   4 C4             3.2826     6.7132     0.4537 C.ar    
   5 C5             3.0057     5.3628     0.5555 C.ar    
   6 C6             3.0766     4.7334     1.7842 C.ar    
   7 C7             4.0287     2.5680    -0.0181 C.3     
   8 N8             3.6823     3.6133    -0.9843 N.am    
   9 C9             2.6240     4.5772    -0.6726 C.3     
  10 C10            5.2383     3.0151     0.8053 C.3     
  11 C11            4.3372     3.6883    -2.1598 C.2     
  12 C12            4.0713     4.8368    -3.0986 C.3     
  13 O13            5.1406     2.8315    -2.4621 O.2     
  14 C14            5.1674     4.8875    -4.1655 C.3     
  15 C15            2.7108     4.6408    -3.7714 C.3     
  16 C16            2.4285     5.8271    -4.6986 C.3     
  17 N17            3.5502     5.9718    -5.6364 N.am    
  18 C18            4.9129     6.0766    -5.0971 C.3     
  19 C19            3.0427     7.7030    -7.7148 C.ar    
  20 C20            4.1254     8.4826    -8.0777 C.ar    
  21 C21            3.9390     9.8062    -8.4266 C.ar    
  22 C22            2.6641    10.3531    -8.4126 C.ar    
  23 C23            1.5793     9.5688    -8.0481 C.ar    
  24 C24            1.7703     8.2442    -7.7055 C.ar    
  25 O25            2.4781    11.6550    -8.7550 O.3     
  26 C26            1.1383    12.1506    -8.7180 C.3     
  27 C27            1.3141     3.8302    -0.4135 C.3     
  28 S28            3.2838     6.0152    -7.2703 S.o2    
  29 O29            4.4980     5.6077    -7.8858 O.2     
  30 O30            2.0422     5.3605    -7.4919 O.2     
  31 H31            3.4876     4.9611     3.8697 H       
  32 H32            3.9778     7.3673     3.6889 H       
  33 H33            3.8487     8.4891     1.5007 H       
  34 H34            3.2254     7.2054    -0.5060 H       
  35 H35            2.8606     3.6782     1.8637 H       
  36 H36            3.1824     2.3918     0.6457 H       
  37 H37            4.2712     1.6478    -0.5497 H       
  38 H38            2.4936     5.2582    -1.5136 H       
  39 H39            5.0412     3.9964     1.2370 H       
  40 H40            5.4196     2.2964     1.6044 H       
  41 H41            6.1157     3.0712     0.1611 H       
  42 H42            4.0674     5.7712    -2.5373 H       
  43 H43            6.1384     5.0037    -3.6842 H       
  44 H44            5.1555     3.9634    -4.7435 H       
  45 H45            2.7220     3.7191    -4.3531 H       
  46 H46            1.9334     4.5814    -3.0097 H       
  47 H47            1.5086     5.6457    -5.2544 H       
  48 H48            2.3271     6.7371    -4.1072 H       
  49 H49            5.0141     7.0069    -4.5382 H       
  50 H50            5.6322     6.0598    -5.9159 H       
  51 H51            5.1177     8.0565    -8.0880 H       
  52 H52            4.7851    10.4148    -8.7096 H       
  53 H53            0.5859     9.9922    -8.0365 H       
  54 H54            0.9262     7.6332    -7.4216 H       
  55 H55            1.1308    13.2000    -9.0127 H       
  56 H56            0.5191    11.5755    -9.4063 H       
  57 H57            0.7431    12.0544    -7.7067 H       
  58 H58            0.5266     4.5474    -0.1816 H       
  59 H59            1.0380     3.2620    -1.3018 H       
  60 H60            1.4444     3.1492     0.4275 H       
@<TRIPOS>BOND
   1    1    2 ar
   2    1    6 ar
   3    1   31 1
   4    2    3 ar
   5    2   32 1
   6    3    4 ar
   7    3   33 1
   8    4    5 ar
   9    4   34 1
  10    5    6 ar
  11    5    9 1
  12    6   35 1
  13    7    8 1
  14    7   10 1
  15    7   36 1
  16    7   37 1
  17    8    9 1
  18    8   11 am
  19    9   27 1
  20    9   38 1
  21   10   39 1
  22   10   40 1
  23   10   41 1
  24   11   12 1
  25   11   13 2
  26   12   14 1
  27   12   15 1
  28   12   42 1
  29   14   18 1
  30   14   43 1
  31   14   44 1
  32   15   16 1
  33   15   45 1
  34   15   46 1
  35   16   17 1
  36   16   47 1
  37   16   48 1
  38   17   28 am
  39   17   18 1
  40   18   49 1
  41   18   50 1
  42   19   28 1
  43   19   20 ar
  44   19   24 ar
  45   20   21 ar
  46   20   51 1
  47   21   22 ar
  48   21   52 1
  49   22   23 ar
  50   22   25 1
  51   23   24 ar
  52   23   53 1
  53   24   54 1
  54   25   26 1
  55   26   55 1
  56   26   56 1
  57   26   57 1
  58   27   58 1
  59   27   59 1
  60   27   60 1
  61   28   29 2
  62   28   30 2

#	End of record

