#	Name: ASD03430875
#	Creating user name:	WinNT
#	Creation time:	15. 06. 2019 20:41

#	Modifying user name:	WinNT
#	Modification time:	15. 06. 2019 20:41

#	Program:	/corina/corina34_cracker 3.40 0067  02.08.2006

@<TRIPOS>MOLECULE
ASD03430875
  37   41    0    0    0
SMALL
NO_CHARGES


@<TRIPOS>ATOM
   1 O1            -0.0164     1.3592     0.0095 O.3     
   2 C2             0.0021    -0.0041     0.0020 C.ar    
   3 C3             1.2397    -0.4882    -0.4139 C.ar    
   4 C4             2.1042     0.7141    -0.6801 C.3     
   5 C5             1.3355     1.8560    -0.0007 C.3     
   6 O6            -1.6119    -3.3142     0.5390 O.3     
   7 C7            -0.7767    -2.2766     0.2547 C.ar    
   8 C8             0.4627    -2.7342    -0.1767 C.ar    
   9 C9             0.4014    -4.2490    -0.1816 C.3     
  10 C10           -1.1218    -4.5067    -0.0968 C.3     
  11 C11            1.4629    -1.8459    -0.5052 C.ar    
  12 C12           -0.9996    -0.9072     0.3374 C.ar    
  13 N13            4.3414     0.7054    -1.1483 N.am    
  14 C14            3.4870     0.5584    -0.1160 C.2     
  15 C15            2.2987     0.9660    -2.1459 C.ar    
  16 C16            1.4350     1.1886    -3.1972 C.ar    
  17 C17            1.9349     1.3954    -4.4735 C.ar    
  18 C18            3.3003     1.3770    -4.6879 C.ar    
  19 C19            4.1679     1.1538    -3.6385 C.ar    
  20 C20            3.6756     0.9461    -2.3525 C.ar    
  21 O21            3.7782     0.3430     1.0416 O.2     
  22 C22            5.6545     1.1353    -3.8850 C.3     
  23 F23            0.1011     1.2058    -2.9833 F       
  24 H24            1.4066     2.7726    -0.5863 H       
  25 H25            1.6970     2.0153     1.0152 H       
  26 H26            0.8140    -4.6527    -1.1062 H       
  27 H27            0.9154    -4.6626     0.6861 H       
  28 H28           -1.3314    -5.3843     0.5147 H       
  29 H29           -1.5506    -4.6173    -1.0928 H       
  30 H30            2.4233    -2.2134    -0.8352 H       
  31 H31           -1.9611    -0.5411     0.6660 H       
  32 H32            5.3062     0.6502    -1.0646 H       
  33 H33            1.2595     1.5699    -5.2979 H       
  34 H34            3.6901     1.5379    -5.6822 H       
  35 H35            6.0554     2.1417    -3.7645 H       
  36 H36            6.1329     0.4657    -3.1703 H       
  37 H37            5.8505     0.7851    -4.8984 H       
@<TRIPOS>BOND
   1    1    2 1
   2    1    5 1
   3    2    3 ar
   4    2   12 ar
   5    3    4 1
   6    3   11 ar
   7    4    5 1
   8    4   14 1
   9    4   15 1
  10    5   24 1
  11    5   25 1
  12    6    7 1
  13    6   10 1
  14    7    8 ar
  15    7   12 ar
  16    8    9 1
  17    8   11 ar
  18    9   10 1
  19    9   26 1
  20    9   27 1
  21   10   28 1
  22   10   29 1
  23   11   30 1
  24   12   31 1
  25   13   14 am
  26   13   20 1
  27   13   32 1
  28   14   21 2
  29   15   16 ar
  30   15   20 ar
  31   16   17 ar
  32   16   23 1
  33   17   18 ar
  34   17   33 1
  35   18   19 ar
  36   18   34 1
  37   19   20 ar
  38   19   22 1
  39   22   35 1
  40   22   36 1
  41   22   37 1

#	End of record

