#	Name: ASD01901567
#	Creating user name:	WinNT
#	Creation time:	15. 06. 2019 19:54

#	Modifying user name:	WinNT
#	Modification time:	15. 06. 2019 19:54

#	Program:	/corina/corina34_cracker 3.40 0067  02.08.2006

@<TRIPOS>MOLECULE
ASD01901567
  46   49    0    0    0
SMALL
NO_CHARGES


@<TRIPOS>ATOM
   1 C1             1.4731     1.2114    -0.1938 C.3     
   2 C2             1.3975    -0.3155    -0.2538 C.3     
   3 C3             1.7978    -0.7914    -1.6518 C.3     
   4 C4             1.7222    -2.3183    -1.7118 C.3     
   5 C5             2.1225    -2.7942    -3.1098 C.3     
   6 N6             2.0501    -4.2563    -3.1673 N.pl3   
   7 N7             3.0951    -5.1333    -2.8593 N.2     
   8 C8             2.7039    -6.3664    -3.0108 C.2     
   9 C9             3.5399    -7.5982    -2.7767 C.3     
  10 C10            1.3116    -6.3425    -3.4477 C.ar    
  11 C11            0.3767    -7.3340    -3.7652 C.ar    
  12 C12           -0.8959    -6.9673    -4.1573 C.ar    
  13 N13           -1.8372    -7.9523    -4.4762 N.pl3   
  14 C14           -1.7704    -9.2072    -3.8641 C.2     
  15 N15           -0.9508    -9.5569    -2.9086 N.2     
  16 N16           -1.1749   -10.8889    -2.5474 N.pl3   
  17 H17           -0.6904   -11.3733    -1.8607 H       
  18 C18           -2.1855   -11.4013    -3.3142 C.ar    
  19 N19           -2.7770   -12.5884    -3.3766 N.ar    
  20 C20           -3.7503   -12.7916    -4.2423 C.ar    
  21 C21           -4.1646   -11.7736    -5.0928 C.ar    
  22 N22           -3.5896   -10.5893    -5.0459 N.ar    
  23 C23           -2.6105   -10.3662    -4.1734 C.ar    
  24 C24           -1.2475    -5.6192    -4.2365 C.ar    
  25 C25           -0.3441    -4.6430    -3.9293 C.ar    
  26 C26            0.9441    -4.9855    -3.5263 C.ar    
  27 H27            2.4918     1.5335    -0.4094 H       
  28 H28            0.7933     1.6381    -0.9313 H       
  29 H29            1.1879     1.5504     0.8021 H       
  30 H30            2.0772    -0.7422     0.4837 H       
  31 H31            0.3787    -0.6376    -0.0383 H       
  32 H32            1.1180    -0.3647    -2.3893 H       
  33 H33            2.8165    -0.4693    -1.8674 H       
  34 H34            2.4019    -2.7450    -0.9743 H       
  35 H35            0.7034    -2.6404    -1.4962 H       
  36 H36            1.4427    -2.3675    -3.8473 H       
  37 H37            3.1412    -2.4721    -3.3254 H       
  38 H38            3.4338    -7.9177    -1.7400 H       
  39 H39            3.2044    -8.3963    -3.4390 H       
  40 H40            4.5861    -7.3716    -2.9819 H       
  41 H41            0.6481    -8.3776    -3.7045 H       
  42 H42           -2.5362    -7.7643    -5.1220 H       
  43 H43           -4.2299   -13.7580    -4.2912 H       
  44 H44           -4.9630   -11.9547    -5.7971 H       
  45 H45           -2.2456    -5.3451    -4.5447 H       
  46 H46           -0.6301    -3.6037    -3.9950 H       
@<TRIPOS>BOND
   1    1    2 1
   2    1   27 1
   3    1   28 1
   4    1   29 1
   5    2    3 1
   6    2   30 1
   7    2   31 1
   8    3    4 1
   9    3   32 1
  10    3   33 1
  11    4    5 1
  12    4   34 1
  13    4   35 1
  14    5    6 1
  15    5   36 1
  16    5   37 1
  17    6   26 1
  18    6    7 1
  19    7    8 2
  20    8    9 1
  21    8   10 1
  22    9   38 1
  23    9   39 1
  24    9   40 1
  25   10   26 ar
  26   10   11 ar
  27   11   12 ar
  28   11   41 1
  29   12   13 1
  30   12   24 ar
  31   13   14 1
  32   13   42 1
  33   14   23 1
  34   14   15 2
  35   15   16 1
  36   16   17 1
  37   16   18 1
  38   18   23 ar
  39   18   19 ar
  40   19   20 ar
  41   20   21 ar
  42   20   43 1
  43   21   22 ar
  44   21   44 1
  45   22   23 ar
  46   24   25 ar
  47   24   45 1
  48   25   26 ar
  49   25   46 1

#	End of record

