#	Name: ASD07930952
#	Creating user name:	WinNT
#	Creation time:	15. 06. 2019 21:13

#	Modifying user name:	WinNT
#	Modification time:	15. 06. 2019 21:13

#	Program:	/corina/corina34_cracker 3.40 0067  02.08.2006

@<TRIPOS>MOLECULE
ASD07930952
  58   63    0    0    0
SMALL
NO_CHARGES


@<TRIPOS>ATOM
   1 N1             0.0906     1.5956     0.0197 N.pl3   
   2 C2             0.3573     0.2817    -0.0555 C.2     
   3 C3             1.6448    -0.1943    -0.0645 C.2     
   4 C4             2.7720     0.7630     0.0101 C.2     
   5 C5             2.4347     2.1970     0.0895 C.ar    
   6 C6             3.4238     3.1729     0.1624 C.ar    
   7 C7             3.0670     4.5034     0.2348 C.ar    
   8 C8             1.7298     4.8675     0.2355 C.ar    
   9 C9             0.7402     3.9095     0.1641 C.ar    
  10 C10            1.0785     2.5624     0.0927 C.ar    
  11 N11            3.6021    -1.2993    -0.0998 N.am    
  12 N12            3.8732     0.0685    -0.0141 N.2     
  13 C13            2.2688    -1.5120    -0.1333 C.2     
  14 O14            1.7001    -2.5892    -0.2063 O.2     
  15 C15           -1.3098     2.0259     0.0183 C.3     
  16 N16           -3.1820     2.5093    -3.7996 N.am    
  17 C17           -2.3837     1.4592    -3.6040 C.2     
  18 C18           -1.7177     1.1570    -2.2924 C.3     
  19 C19           -1.7258     2.4039    -1.4047 C.3     
  20 C20           -3.1468     2.9801    -1.3913 C.3     
  21 C21           -3.4710     3.5163    -2.7862 C.3     
  22 C22           -3.7750     2.6567    -5.0584 C.ar    
  23 C23           -3.5222     3.7914    -5.8181 C.ar    
  24 C24           -4.1087     3.9337    -7.0604 C.ar    
  25 C25           -4.9473     2.9481    -7.5477 C.ar    
  26 C26           -5.2012     1.8171    -6.7936 C.ar    
  27 C27           -4.6132     1.6661    -5.5530 C.ar    
  28 O28           -2.1852     0.7078    -4.5352 O.2     
  29 C29            4.5744    -2.3065    -0.1451 C.ar    
  30 C30            5.5706    -2.2709    -1.1155 C.ar    
  31 C31            6.5284    -3.2672    -1.1564 C.ar    
  32 C32            6.4959    -4.2975    -0.2342 C.ar    
  33 C33            5.5065    -4.3350     0.7307 C.ar    
  34 C34            4.5497    -3.3395     0.7817 C.ar    
  35 F35            5.6019    -1.2647    -2.0165 F       
  36 H36           -0.4627    -0.4189    -0.1101 H       
  37 H37            4.4661     2.8899     0.1626 H       
  38 H38            3.8320     5.2637     0.2915 H       
  39 H39            1.4599     5.9117     0.2929 H       
  40 H40           -0.2984     4.2056     0.1661 H       
  41 H41           -1.9402     1.2123     0.3771 H       
  42 H42           -1.4249     2.8903     0.6723 H       
  43 H43           -2.2546     0.3519    -1.7907 H       
  44 H44           -0.6882     0.8470    -2.4720 H       
  45 H45           -1.0329     3.1440    -1.8051 H       
  46 H46           -3.8567     2.1964    -1.1266 H       
  47 H47           -3.2059     3.7908    -0.6651 H       
  48 H48           -2.8698     4.4047    -2.9794 H       
  49 H49           -4.5269     3.7823    -2.8335 H       
  50 H50           -2.8678     4.5618    -5.4378 H       
  51 H51           -3.9124     4.8159    -7.6517 H       
  52 H52           -5.4054     3.0620    -8.5191 H       
  53 H53           -5.8566     1.0491    -7.1770 H       
  54 H54           -4.8086     0.7807    -4.9663 H       
  55 H55            7.3022    -3.2412    -1.9094 H       
  56 H56            7.2450    -5.0747    -0.2681 H       
  57 H57            5.4840    -5.1415     1.4487 H       
  58 H58            3.7804    -3.3676     1.5392 H       
@<TRIPOS>BOND
   1    1    2 1
   2    1   10 1
   3    1   15 1
   4    2    3 2
   5    2   36 1
   6    3    4 1
   7    3   13 1
   8    4    5 1
   9    4   12 2
  10    5    6 ar
  11    5   10 ar
  12    6    7 ar
  13    6   37 1
  14    7    8 ar
  15    7   38 1
  16    8    9 ar
  17    8   39 1
  18    9   10 ar
  19    9   40 1
  20   11   12 1
  21   11   13 am
  22   11   29 1
  23   13   14 2
  24   15   19 1
  25   15   41 1
  26   15   42 1
  27   16   17 am
  28   16   21 1
  29   16   22 1
  30   17   18 1
  31   17   28 2
  32   18   19 1
  33   18   43 1
  34   18   44 1
  35   19   20 1
  36   19   45 1
  37   20   21 1
  38   20   46 1
  39   20   47 1
  40   21   48 1
  41   21   49 1
  42   22   23 ar
  43   22   27 ar
  44   23   24 ar
  45   23   50 1
  46   24   25 ar
  47   24   51 1
  48   25   26 ar
  49   25   52 1
  50   26   27 ar
  51   26   53 1
  52   27   54 1
  53   29   30 ar
  54   29   34 ar
  55   30   31 ar
  56   30   35 1
  57   31   32 ar
  58   31   55 1
  59   32   33 ar
  60   32   56 1
  61   33   34 ar
  62   33   57 1
  63   34   58 1

#	End of record

