#	Name: ASD03180047
#	Creating user name:	WinNT
#	Creation time:	15. 06. 2019 20:33

#	Modifying user name:	WinNT
#	Modification time:	15. 06. 2019 20:33

#	Program:	/corina/corina34_cracker 3.40 0067  02.08.2006

@<TRIPOS>MOLECULE
ASD03180047
  35   37    0    0    0
SMALL
NO_CHARGES


@<TRIPOS>ATOM
   1 C1             0.3997     1.0209    -1.4902 C.ar    
   2 C2             0.0890    -0.0492    -0.6688 C.ar    
   3 C3             0.9362    -0.3984     0.3664 C.ar    
   4 C4             2.0959     0.3196     0.5844 C.ar    
   5 C5             2.4114     1.3937    -0.2379 C.ar    
   6 C6             1.5586     1.7429    -1.2775 C.ar    
   7 N7             3.5838     2.1222    -0.0193 N.pl3   
   8 C8             3.5691     3.5049    -0.1168 C.2     
   9 C9             4.4055     5.5832    -0.1611 C.2     
  10 N10            4.6128     4.2719    -0.0456 N.2     
  11 S11            2.1315     4.4912    -0.3641 S.3     
  12 C12            3.1226     5.9478    -0.3415 C.2     
  13 C13            5.5073     6.5680    -0.0976 C.2     
  14 S14            5.3458     8.3171    -0.2367 S.3     
  15 C15            7.0351     8.4982    -0.0471 C.2     
  16 N16            7.5971     7.3458     0.0990 N.2     
  17 C17            6.8157     6.2875     0.0832 C.2     
  18 C18            7.7647     9.8168    -0.0510 C.3     
  19 C19            7.3363     4.8830     0.2487 C.3     
  20 Cl20          -0.6638     1.4517    -2.7929 Cl      
  21 C21            3.0178    -0.0617     1.7138 C.3     
  22 H22           -0.8172    -0.6121    -0.8367 H       
  23 H23            0.6908    -1.2336     1.0057 H       
  24 H24            1.8011     2.5775    -1.9187 H       
  25 H25            4.4079     1.6603     0.2007 H       
  26 H26            2.7625     6.9596    -0.4548 H       
  27 H27            7.8188    10.2051     0.9661 H       
  28 H28            8.7730     9.6730    -0.4391 H       
  29 H29            7.2299    10.5261    -0.6827 H       
  30 H30            7.5866     4.4707    -0.7288 H       
  31 H31            8.2276     4.8975     0.8760 H       
  32 H32            6.5713     4.2649     0.7187 H       
  33 H33            3.7499    -0.7859     1.3565 H       
  34 H34            3.5335     0.8270     2.0777 H       
  35 H35            2.4368    -0.5020     2.5242 H       
@<TRIPOS>BOND
   1    1    2 ar
   2    1    6 ar
   3    1   20 1
   4    2    3 ar
   5    2   22 1
   6    3    4 ar
   7    3   23 1
   8    4    5 ar
   9    4   21 1
  10    5    6 ar
  11    5    7 1
  12    6   24 1
  13    7    8 1
  14    7   25 1
  15    8   11 1
  16    8   10 2
  17    9   10 1
  18    9   12 2
  19    9   13 1
  20   11   12 1
  21   12   26 1
  22   13   14 1
  23   13   17 2
  24   14   15 1
  25   15   16 2
  26   15   18 1
  27   16   17 1
  28   17   19 1
  29   18   27 1
  30   18   28 1
  31   18   29 1
  32   19   30 1
  33   19   31 1
  34   19   32 1
  35   21   33 1
  36   21   34 1
  37   21   35 1

#	End of record

