#	Name: ASD01200078
#	Creating user name:	WinNT
#	Creation time:	15. 06. 2019 19:08

#	Modifying user name:	WinNT
#	Modification time:	15. 06. 2019 19:08

#	Program:	/corina/corina34_cracker 3.40 0067  02.08.2006

@<TRIPOS>MOLECULE
ASD01200078
  39   41    0    0    0
SMALL
NO_CHARGES


@<TRIPOS>ATOM
   1 C1             0.4777     1.4883    -1.4645 C.2     
   2 C2             0.3536     0.1669    -0.8139 C.ar    
   3 C3             1.4602    -0.6791    -0.7303 C.ar    
   4 C4             1.3364    -1.9153    -0.1189 C.ar    
   5 C5             0.1139    -2.3106     0.4084 C.ar    
   6 C6            -0.9832    -1.4735     0.3262 C.ar    
   7 C7            -0.8695    -0.2369    -0.2759 C.ar    
   8 O8             1.5452     1.8398    -1.9278 O.2     
   9 N9            -0.5940     2.3012    -1.5489 N.am    
  10 S10            0.9593     4.1655    -2.8466 S.3     
  11 C11           -0.4775     3.5429    -2.1602 C.2     
  12 N12           -1.4423     4.3985    -2.2935 N.2     
  13 C13           -1.1543     5.5336    -2.9023 C.2     
  14 C14            0.1140     5.6424    -3.3025 C.2     
  15 C15           -2.1755     6.6187    -3.1280 C.3     
  16 O16            2.4115    -2.7423    -0.0352 O.3     
  17 C17            3.2271    -2.6211     1.0449 C.ar    
  18 C18            4.3979    -3.3625     1.1185 C.ar    
  19 C19            5.2251    -3.2374     2.2175 C.ar    
  20 C20            4.8872    -2.3747     3.2442 C.ar    
  21 C21            3.7212    -1.6354     3.1735 C.ar    
  22 C22            2.8935    -1.7518     2.0734 C.ar    
  23 C23            4.7663    -4.3035     0.0005 C.3     
  24 H24            2.4101    -0.3707    -1.1413 H       
  25 H25            0.0199    -3.2756     0.8841 H       
  26 H26           -1.9313    -1.7867     0.7378 H       
  27 H27           -1.7275     0.4164    -0.3344 H       
  28 H28           -1.4468     2.0190    -1.1827 H       
  29 H29            0.5467     6.4880    -3.8165 H       
  30 H30           -2.1730     7.3022    -2.2789 H       
  31 H31           -1.9280     7.1673    -4.0367 H       
  32 H32           -3.1641     6.1714    -3.2314 H       
  33 H33            6.1364    -3.8141     2.2752 H       
  34 H34            5.5352    -2.2787     4.1028 H       
  35 H35            3.4594    -0.9626     3.9768 H       
  36 H36            1.9853    -1.1701     2.0163 H       
  37 H37            5.3648    -3.7721    -0.7394 H       
  38 H38            5.3418    -5.1374     0.4023 H       
  39 H39            3.8587    -4.6816    -0.4700 H       
@<TRIPOS>BOND
   1    1    2 1
   2    1    8 2
   3    1    9 am
   4    2    3 ar
   5    2    7 ar
   6    3    4 ar
   7    3   24 1
   8    4    5 ar
   9    4   16 1
  10    5    6 ar
  11    5   25 1
  12    6    7 ar
  13    6   26 1
  14    7   27 1
  15    9   11 1
  16    9   28 1
  17   10   11 1
  18   10   14 1
  19   11   12 2
  20   12   13 1
  21   13   14 2
  22   13   15 1
  23   14   29 1
  24   15   30 1
  25   15   31 1
  26   15   32 1
  27   16   17 1
  28   17   18 ar
  29   17   22 ar
  30   18   19 ar
  31   18   23 1
  32   19   20 ar
  33   19   33 1
  34   20   21 ar
  35   20   34 1
  36   21   22 ar
  37   21   35 1
  38   22   36 1
  39   23   37 1
  40   23   38 1
  41   23   39 1

#	End of record

