#	Name: ASD00170140
#	Creating user name:	WinNT
#	Creation time:	15. 06. 2019 18:31

#	Modifying user name:	WinNT
#	Modification time:	15. 06. 2019 18:31

#	Program:	/corina/corina34_cracker 3.40 0067  02.08.2006

@<TRIPOS>MOLECULE
ASD00170140
  37   41    0    0    0
SMALL
NO_CHARGES


@<TRIPOS>ATOM
   1 C1            -0.0182     1.4913     0.0102 C.2     
   2 C2             0.0021    -0.0041     0.0020 C.ar    
   3 C3             1.3191    -0.4523    -0.0130 C.ar    
   4 C4             2.1959     0.7739    -0.0148 C.3     
   5 C5             1.2473     1.9527     0.0006 C.2     
   6 S6             1.2222     3.7155     0.0098 S.3     
   7 C7            -0.5366     3.6919     0.0263 C.2     
   8 N8            -0.9504     2.4701     0.0195 N.2     
   9 C9            -1.0454    -0.9282     0.0075 C.ar    
  10 C10           -0.7704    -2.2774    -0.0020 C.ar    
  11 C11            0.5516    -2.7231    -0.0170 C.ar    
  12 C12            1.5977    -1.7991    -0.0229 C.ar    
  13 N13           -1.3514     4.8122     0.0402 N.pl3   
  14 C14            0.8448    -4.1763    -0.0263 C.ar    
  15 C15           -0.1966    -5.0858    -0.0200 C.ar    
  16 C16            0.0871    -6.4602    -0.0288 C.ar    
  17 C17            1.4368    -6.8941    -0.0441 C.ar    
  18 C18            2.4733    -5.9431    -0.0501 C.ar    
  19 C19            2.1782    -4.6177    -0.0472 C.ar    
  20 C20           -0.9445    -7.4160    -0.0222 C.ar    
  21 C21           -0.6350    -8.7412    -0.0307 C.ar    
  22 C22            0.6918    -9.1674    -0.0454 C.ar    
  23 C23            1.7162    -8.2711    -0.0525 C.ar    
  24 H24            2.8273     0.7868     0.8736 H       
  25 H25            2.8102     0.7964    -0.9148 H       
  26 H26           -2.0693    -0.5850     0.0195 H       
  27 H27           -1.5799    -2.9922     0.0026 H       
  28 H28            2.6223    -2.1405    -0.0347 H       
  29 H29           -0.9573     5.6985     0.0413 H       
  30 H30           -2.3160     4.7103     0.0487 H       
  31 H31           -1.2202    -4.7414    -0.0080 H       
  32 H32            3.5035    -6.2671    -0.0614 H       
  33 H33            2.9793    -3.8934    -0.0519 H       
  34 H34           -1.9772    -7.0999    -0.0102 H       
  35 H35           -1.4291    -9.4732    -0.0256 H       
  36 H36            0.9105   -10.2250    -0.0511 H       
  37 H37            2.7393    -8.6168    -0.0642 H       
@<TRIPOS>BOND
   1    1    2 1
   2    1    5 2
   3    1    8 1
   4    2    3 ar
   5    2    9 ar
   6    3    4 1
   7    3   12 ar
   8    4    5 1
   9    4   24 1
  10    4   25 1
  11    5    6 1
  12    6    7 1
  13    7    8 2
  14    7   13 1
  15    9   10 ar
  16    9   26 1
  17   10   11 ar
  18   10   27 1
  19   11   12 ar
  20   11   14 1
  21   12   28 1
  22   13   29 1
  23   13   30 1
  24   14   15 ar
  25   14   19 ar
  26   15   16 ar
  27   15   31 1
  28   16   17 ar
  29   16   20 ar
  30   17   18 ar
  31   17   23 ar
  32   18   19 ar
  33   18   32 1
  34   19   33 1
  35   20   21 ar
  36   20   34 1
  37   21   22 ar
  38   21   35 1
  39   22   23 ar
  40   22   36 1
  41   23   37 1

#	End of record

