#	Name: ASD02198606
#	Creating user name:	WinNT
#	Creation time:	15. 06. 2019 20:19

#	Modifying user name:	WinNT
#	Modification time:	15. 06. 2019 20:19

#	Program:	/corina/corina34_cracker 3.40 0067  02.08.2006

@<TRIPOS>MOLECULE
ASD02198606
  41   44    0    0    0
SMALL
NO_CHARGES


@<TRIPOS>ATOM
   1 C1            -0.0439     1.5053    -0.1135 C.2     
   2 C2            -0.0746     0.1657     0.0994 C.2     
   3 N3             1.0693    -0.5368     0.2616 N.pl3   
   4 N4             2.2342    -0.0030     0.2275 N.2     
   5 C5             2.4068     1.2861     0.0290 C.2     
   6 C6             1.2215     2.1383    -0.1595 C.2     
   7 C7             0.9768    -1.9159     0.4781 C.ar    
   8 C8             1.5765    -2.4883     1.5953 C.ar    
   9 C9             1.4819    -3.8522     1.8054 C.ar    
  10 C10            0.7926    -4.6449     0.9066 C.ar    
  11 C11            0.1959    -4.0781    -0.2051 C.ar    
  12 C12            0.2811    -2.7164    -0.4187 C.ar    
  13 C13            3.7643     1.8672    -0.0038 C.2     
  14 N14            4.3068     2.6065    -1.0170 N.pl3   
  15 N15            5.6092     2.9568    -0.6395 N.2     
  16 C16            5.8526     2.4572     0.5459 C.2     
  17 C17            4.7198     1.7712     0.9840 C.2     
  18 C18            3.6741     2.9515    -2.2181 C.ar    
  19 C19            2.9065     2.0128    -2.8948 C.ar    
  20 O20            1.3255     3.3412    -0.3477 O.2     
  21 C21            3.8083     4.2348    -2.7316 C.ar    
  22 C22            3.1827     4.5720    -3.9158 C.ar    
  23 C23            2.4233     3.6334    -4.5900 C.ar    
  24 C24            2.2834     2.3563    -4.0785 C.ar    
  25 F25            2.2504    -1.7135     2.4732 F       
  26 C26            0.6914    -6.1305     1.1385 C.3     
  27 F27           -0.4494    -6.4071     1.8996 F       
  28 F28            0.6019    -6.7896    -0.0923 F       
  29 F29            1.8278    -6.5741     1.8234 F       
  30 H30           -0.9548     2.0696    -0.2479 H       
  31 H31           -1.0248    -0.3460     0.1401 H       
  32 H32            1.9471    -4.2983     2.6720 H       
  33 H33           -0.3410    -4.7010    -0.9051 H       
  34 H34           -0.1854    -2.2754    -1.2873 H       
  35 H35            6.7762     2.5627     1.0957 H       
  36 H36            4.6136     1.2519     1.9250 H       
  37 H37            2.7971     1.0151    -2.4960 H       
  38 H38            4.4009     4.9684    -2.2053 H       
  39 H39            3.2864     5.5700    -4.3155 H       
  40 H40            1.9348     3.8997    -5.5157 H       
  41 H41            1.6899     1.6253    -4.6076 H       
@<TRIPOS>BOND
   1    1    2 2
   2    1    6 1
   3    1   30 1
   4    2    3 1
   5    2   31 1
   6    3    4 1
   7    3    7 1
   8    4    5 2
   9    5    6 1
  10    5   13 1
  11    6   20 2
  12    7    8 ar
  13    7   12 ar
  14    8    9 ar
  15    8   25 1
  16    9   10 ar
  17    9   32 1
  18   10   11 ar
  19   10   26 1
  20   11   12 ar
  21   11   33 1
  22   12   34 1
  23   13   14 1
  24   13   17 2
  25   14   15 1
  26   14   18 1
  27   15   16 2
  28   16   17 1
  29   16   35 1
  30   17   36 1
  31   18   21 ar
  32   18   19 ar
  33   19   24 ar
  34   19   37 1
  35   21   22 ar
  36   21   38 1
  37   22   23 ar
  38   22   39 1
  39   23   24 ar
  40   23   40 1
  41   24   41 1
  42   26   27 1
  43   26   28 1
  44   26   29 1

#	End of record

