#	Name: ASD05740136
#	Creating user name:	WinNT
#	Creation time:	15. 06. 2019 21:02

#	Modifying user name:	WinNT
#	Modification time:	15. 06. 2019 21:02

#	Program:	/corina/corina34_cracker 3.40 0067  02.08.2006

@<TRIPOS>MOLECULE
ASD05740136
  53   54    0    0    0
SMALL
NO_CHARGES


@<TRIPOS>ATOM
   1 C1            -0.0192     1.5411     0.0123 C.3     
   2 C2            -2.9596    -1.7170     0.9719 C.3     
   3 C3            -2.1470    -4.0139     0.2457 C.2     
   4 C4            -1.3210    -4.7920    -0.5457 C.2     
   5 C5            -2.0748    -2.5963     0.1264 C.2     
   6 C6            -1.2021    -2.0431    -0.7558 C.2     
   7 C7            -0.3848    -2.8761    -1.5367 C.2     
   8 O8            -0.4616    -4.2087    -1.4153 O.3     
   9 C9            -1.1123    -0.5453    -0.8958 C.3     
  10 C10           -0.0819    -0.0013     0.0957 C.3     
  11 C11            1.3309    -0.4824    -0.2838 C.3     
  12 O12            0.3999    -2.3840    -2.3299 O.2     
  13 C13            1.4951     1.8347     0.1583 C.3     
  14 N14            2.1310     0.7224    -0.5932 N.3     
  15 N15            1.8320     3.1261    -0.4459 N.am    
  16 S16            3.1593     3.9652     0.0801 S.o2    
  17 O17            3.2318     5.1407    -0.7150 O.2     
  18 O18            3.0821     3.9900     1.4988 O.2     
  19 S19           -1.6043    -6.4964    -0.2088 S.3     
  20 C20           -2.8285    -6.1257     0.9899 C.2     
  21 C21           -2.9997    -4.8189     1.1083 C.2     
  22 O22           -3.5153    -7.0579     1.7003 O.3     
  23 N23            4.4934     3.0606    -0.2998 N.am    
  24 C24            4.8363     2.8147    -1.7027 C.3     
  25 C25           -3.2062    -8.4288     1.4408 C.3     
  26 H26           -0.3886     1.8906    -0.9518 H       
  27 H27           -0.5805     1.9947     0.8291 H       
  28 H28           -3.5854    -2.3392     1.6117 H       
  29 H29           -2.3412    -1.0665     1.5904 H       
  30 H30           -3.5924    -1.1091     0.3252 H       
  31 H31           -0.8078    -0.2929    -1.9115 H       
  32 H32           -2.0861    -0.1019    -0.6877 H       
  33 H33           -0.3305    -0.3156     1.1094 H       
  34 H34            1.7774    -1.0199     0.5527 H       
  35 H35            1.2801    -1.1293    -1.1596 H       
  36 H36            1.7947     1.8118     1.2061 H       
  37 H37            3.0925     0.5998    -0.3128 H       
  38 H38            1.2777     3.4896    -1.1540 H       
  39 H39           -3.7101    -4.3839     1.7957 H       
  40 H40            5.0477     2.6936     0.4065 H       
  41 H41            5.7384     2.2051    -1.7547 H       
  42 H42            4.0149     2.2904    -2.1910 H       
  43 H43            5.0108     3.7655    -2.2062 H       
  44 H44           -3.8240    -9.0665     2.0731 H       
  45 H45           -3.4050    -8.6540     0.3930 H       
  46 H46           -2.1539    -8.6114     1.6584 H       
  47 C47           11.2656    12.8100     8.9414 C.3     
  48 N48           11.2855    11.3452     8.9333 N.2     
  49 C49           11.8262    10.7326     7.9873 C.1     
  50 O50           12.3488    10.1407     7.0731 O.2     
  51 H51           12.2882    13.1873     8.9336 H       
  52 H52           10.7384    13.1711     8.0583 H       
  53 H53           10.7554    13.1615     9.8382 H       
@<TRIPOS>BOND
   1    1   10 1
   2    1   13 1
   3    1   26 1
   4    1   27 1
   5    2    5 1
   6    2   28 1
   7    2   29 1
   8    2   30 1
   9    3    4 2
  10    3    5 1
  11    3   21 1
  12    4   19 1
  13    4    8 1
  14    5    6 2
  15    6    7 1
  16    6    9 1
  17    7    8 1
  18    7   12 2
  19    9   10 1
  20    9   31 1
  21    9   32 1
  22   10   11 1
  23   10   33 1
  24   11   14 1
  25   11   34 1
  26   11   35 1
  27   13   14 1
  28   13   15 1
  29   13   36 1
  30   14   37 1
  31   15   16 am
  32   15   38 1
  33   16   17 2
  34   16   18 2
  35   16   23 am
  36   19   20 1
  37   20   21 2
  38   20   22 1
  39   21   39 1
  40   22   25 1
  41   23   24 1
  42   23   40 1
  43   24   41 1
  44   24   42 1
  45   24   43 1
  46   25   44 1
  47   25   45 1
  48   25   46 1
  49   47   48 1
  50   47   51 1
  51   47   52 1
  52   47   53 1
  53   48   49 2
  54   49   50 2

#	End of record

