#	Name: ASD03092552
#	Creating user name:	WinNT
#	Creation time:	15. 06. 2019 20:32

#	Modifying user name:	WinNT
#	Modification time:	15. 06. 2019 20:32

#	Program:	/corina/corina34_cracker 3.40 0067  02.08.2006

@<TRIPOS>MOLECULE
ASD03092552
  38   40    0    0    0
SMALL
NO_CHARGES


@<TRIPOS>ATOM
   1 S1            -0.0191     1.5588     0.0106 S.3     
   2 N2             0.0021    -0.0041     0.0020 N.2     
   3 C3             1.2225    -0.4387    -0.0120 C.2     
   4 C4             2.2376     0.4899    -0.0167 C.2     
   5 C5             1.7376     1.7802    -0.0050 C.2     
   6 C6             2.4912     3.0435    -0.0058 C.2     
   7 O7             3.7073     3.0262    -0.0179 O.2     
   8 N8             1.8341     4.2202     0.0068 N.am    
   9 C9             2.5846     5.4783     0.0060 C.3     
  10 C10            2.9680     5.8444     1.4412 C.3     
  11 N11           -0.3878     9.6615    -2.3163 N.pl3   
  12 C12            0.5994    10.2796    -3.0345 C.2     
  13 C13            1.7637     9.6345    -2.8611 C.2     
  14 C14            1.5007     8.5114    -1.9582 C.ar    
  15 C15            2.2919     7.4976    -1.4142 C.ar    
  16 C16            1.7302     6.5725    -0.5803 C.ar    
  17 C17            0.3785     6.6322    -0.2692 C.ar    
  18 C18           -0.4204     7.6235    -0.7950 C.ar    
  19 C19            0.1306     8.5760    -1.6464 C.ar    
  20 C20            0.4077    11.5031    -3.8932 C.3     
  21 C21            1.5209    -1.9158    -0.0223 C.3     
  22 H22            3.2891     0.2436    -0.0277 H       
  23 H23            0.8642     4.2340     0.0165 H       
  24 H24            3.4878     5.3622    -0.5930 H       
  25 H25            3.5860     5.0530     1.8653 H       
  26 H26            3.5264     6.7805     1.4406 H       
  27 H27            2.0648     5.9605     2.0402 H       
  28 H28           -1.3139     9.9478    -2.2811 H       
  29 H29            2.7141     9.8942    -3.3035 H       
  30 H30            3.3440     7.4444    -1.6525 H       
  31 H31           -0.0511     5.8937     0.3915 H       
  32 H32           -1.4709     7.6612    -0.5473 H       
  33 H33            0.5736    12.3978    -3.2931 H       
  34 H34            1.1188    11.4825    -4.7190 H       
  35 H35           -0.6080    11.5140    -4.2885 H       
  36 H36            1.5833    -2.2667    -1.0523 H       
  37 H37            2.4699    -2.0983     0.4819 H       
  38 H38            0.7253    -2.4508     0.4962 H       
@<TRIPOS>BOND
   1    1    2 1
   2    1    5 1
   3    2    3 2
   4    3    4 1
   5    3   21 1
   6    4    5 2
   7    4   22 1
   8    5    6 1
   9    6    7 2
  10    6    8 am
  11    8    9 1
  12    8   23 1
  13    9   10 1
  14    9   16 1
  15    9   24 1
  16   10   25 1
  17   10   26 1
  18   10   27 1
  19   11   12 1
  20   11   19 1
  21   11   28 1
  22   12   13 2
  23   12   20 1
  24   13   14 1
  25   13   29 1
  26   14   15 ar
  27   14   19 ar
  28   15   16 ar
  29   15   30 1
  30   16   17 ar
  31   17   18 ar
  32   17   31 1
  33   18   19 ar
  34   18   32 1
  35   20   33 1
  36   20   34 1
  37   20   35 1
  38   21   36 1
  39   21   37 1
  40   21   38 1

#	End of record

