#	Name: ASD01814089
#	Creating user name:	WinNT
#	Creation time:	15. 06. 2019 19:31

#	Modifying user name:	WinNT
#	Modification time:	15. 06. 2019 19:31

#	Program:	/corina/corina34_cracker 3.40 0067  02.08.2006

@<TRIPOS>MOLECULE
ASD01814089
  49   53    0    0    0
SMALL
NO_CHARGES


@<TRIPOS>ATOM
   1 C1             1.1588     2.2497    -0.5155 C.ar    
   2 C2             0.7822     0.9155    -0.5001 C.ar    
   3 C3             1.7239    -0.0817    -0.3474 C.ar    
   4 C4             3.0709     0.2475    -0.2070 C.ar    
   5 C5             3.4512     1.6003    -0.2232 C.ar    
   6 C6             2.4871     2.5996    -0.3781 C.ar    
   7 N7             4.0210    -0.7400    -0.0528 N.pl3   
   8 C8             5.3261    -0.4754     0.0867 C.2     
   9 C9             5.8191     0.8139     0.0868 C.2     
  10 C10            4.8786     1.9350    -0.0738 C.2     
  11 O11            5.2639     3.0911    -0.0809 O.2     
  12 C12            7.2588     1.0632     0.2435 C.2     
  13 O13            7.7282     2.3269     0.2420 O.3     
  14 O14            8.0266     0.1298     0.3746 O.2     
  15 C15            3.5837    -2.1382    -0.0406 C.3     
  16 C16            3.4403    -2.6321    -1.4571 C.ar    
  17 C17            4.5225    -2.5815    -2.3197 C.ar    
  18 C18            4.3926    -3.0349    -3.6205 C.ar    
  19 C19            3.1766    -3.5402    -4.0590 C.ar    
  20 C20            2.0938    -3.5891    -3.1906 C.ar    
  21 C21            2.2300    -3.1402    -1.8917 C.ar    
  22 N22            3.0414    -3.9999    -5.3760 N.pl3   
  23 F23            1.3402    -1.3770    -0.3337 F       
  24 C24            1.9192    -4.5119    -5.9242 C.2     
  25 C25            2.2046    -4.8381    -7.2191 C.2     
  26 C26            3.5547    -4.5063    -7.4527 C.2     
  27 N27            4.0454    -4.0018    -6.3518 N.2     
  28 F28            5.7052    -2.0889    -1.8912 F       
  29 C29            1.2656    -5.4329    -8.2007 C.ar    
  30 F30            2.8526     3.9001    -0.3942 F       
  31 C31            1.6951    -5.7163    -9.4975 C.ar    
  32 N32            0.8554    -6.2456   -10.3670 N.ar    
  33 C33           -0.3909    -6.5070   -10.0108 C.ar    
  34 C34           -0.8215    -6.2272    -8.7259 C.ar    
  35 N35            0.0128    -5.7030    -7.8465 N.ar    
  36 H36            0.4104     3.0183    -0.6399 H       
  37 H37           -0.2599     0.6536    -0.6084 H       
  38 H38            6.0160    -1.2981     0.2034 H       
  39 H39            8.6825     2.4409     0.3482 H       
  40 H40            4.3222    -2.7453     0.4829 H       
  41 H41            2.6235    -2.2141     0.4696 H       
  42 H42            5.2361    -2.9954    -4.2937 H       
  43 H43            1.1466    -3.9817    -3.5300 H       
  44 H44            1.3877    -3.1784    -1.2168 H       
  45 H45            0.9684    -4.6408    -5.4285 H       
  46 H46            4.0891    -4.6412    -8.3815 H       
  47 H47            2.7128    -5.5027    -9.7892 H       
  48 H48           -1.0751    -6.9402   -10.7253 H       
  49 H49           -1.8406    -6.4421    -8.4404 H       
@<TRIPOS>BOND
   1    1    2 ar
   2    1    6 ar
   3    1   36 1
   4    2    3 ar
   5    2   37 1
   6    3    4 ar
   7    3   23 1
   8    4    5 ar
   9    4    7 1
  10    5    6 ar
  11    5   10 1
  12    6   30 1
  13    7    8 1
  14    7   15 1
  15    8    9 2
  16    8   38 1
  17    9   10 1
  18    9   12 1
  19   10   11 2
  20   12   13 1
  21   12   14 2
  22   13   39 1
  23   15   16 1
  24   15   40 1
  25   15   41 1
  26   16   17 ar
  27   16   21 ar
  28   17   18 ar
  29   17   28 1
  30   18   19 ar
  31   18   42 1
  32   19   20 ar
  33   19   22 1
  34   20   21 ar
  35   20   43 1
  36   21   44 1
  37   22   24 1
  38   22   27 1
  39   24   25 2
  40   24   45 1
  41   25   26 1
  42   25   29 1
  43   26   27 2
  44   26   46 1
  45   29   31 ar
  46   29   35 ar
  47   31   32 ar
  48   31   47 1
  49   32   33 ar
  50   33   34 ar
  51   33   48 1
  52   34   35 ar
  53   34   49 1

#	End of record

