#	Name: ASD00731051
#	Creating user name:	WinNT
#	Creation time:	15. 06. 2019 18:37

#	Modifying user name:	WinNT
#	Modification time:	15. 06. 2019 18:37

#	Program:	/corina/corina34_cracker 3.40 0067  02.08.2006

@<TRIPOS>MOLECULE
ASD00731051
 234  236    0    0    0
SMALL
NO_CHARGES


@<TRIPOS>ATOM
   1 C1            -0.4109     1.8245    -1.1234 C.2     
   2 O2            -0.8356     1.3122    -2.1374 O.2     
   3 N3             1.5150     2.4265    -2.4716 N.am    
   4 C4             0.9297     2.5128    -1.1314 C.3     
   5 C5             0.7505     3.9828    -0.7468 C.3     
   6 C6             2.0902     4.7106    -0.8755 C.3     
   7 O7            -0.2067     4.5896    -1.6172 O.3     
   8 C8            -3.4795     2.2880    -0.3941 C.2     
   9 O9            -3.0931     3.4134    -0.6285 O.2     
  10 N10           -1.1403     1.7829     0.0091 N.am    
  11 C11           -2.4914     1.2168    -0.0102 C.3     
  12 C12           -2.8382     0.6773     1.3789 C.3     
  13 C13           -1.9370    -0.4855     1.7055 C.2     
  14 O14           -1.0498    -0.7943     0.9457 O.2     
  15 O15           -2.1199    -1.1782     2.8407 O.3     
  16 C16           -7.1121     2.6863    -0.3013 C.2     
  17 O17           -7.2634     1.6672     0.3386 O.2     
  18 N18           -4.7924     1.9952    -0.4769 N.am    
  19 C19           -5.7530     3.0365    -0.8502 C.3     
  20 C20           -5.8292     3.1372    -2.3750 C.3     
  21 C21           -4.4824     3.6138    -2.9226 C.3     
  22 C22           -4.5586     3.7145    -4.4473 C.3     
  23 N23           -3.2690     4.1708    -4.9717 N.pl3   
  24 C24           -3.0974     4.3370    -6.3256 C.2     
  25 N25           -1.9501     4.7430    -6.7921 N.2     
  26 N26           -4.1360     4.0748    -7.1874 N.pl3   
  27 C27          -10.5457     3.8266    -0.8241 C.2     
  28 O28          -10.2320     4.5146    -1.7723 O.2     
  29 N29           -8.1593     3.5056    -0.5215 N.am    
  30 C30           -9.4806     3.1651     0.0120 C.3     
  31 C31           -9.5888     3.6556     1.4572 C.3     
  32 C32           -8.5907     2.8930     2.3308 C.3     
  33 C33           -8.6101     3.4683     3.7484 C.3     
  34 C34           -8.9783     1.4136     2.3754 C.3     
  35 C35          -14.1275     4.4824    -0.5029 C.2     
  36 O36          -14.1481     4.1140     0.6525 O.2     
  37 N37          -11.8468     3.6535    -0.5181 N.am    
  38 C38          -12.8822     4.2965    -1.3309 C.3     
  39 C39          -13.2009     3.4159    -2.5408 C.3     
  40 C40          -11.9710     3.3292    -3.4466 C.3     
  41 C41          -12.2898     2.4485    -4.6565 C.3     
  42 N42          -11.1121     2.3655    -5.5239 N.pl3   
  43 C43          -11.1609     1.6235    -6.6803 C.2     
  44 N44          -10.1131     1.5496    -7.4520 N.2     
  45 N45          -12.3150     0.9594    -7.0226 N.pl3   
  46 C46          -17.6304     5.3047    -1.1486 C.2     
  47 O47          -17.4892     5.2100    -2.3495 O.2     
  48 N48          -15.2184     5.0580    -1.0462 N.am    
  49 C49          -16.4290     5.2387    -0.2412 C.3     
  50 C50          -16.3210     6.5393     0.5574 C.3     
  51 C51          -15.1771     6.4244     1.5669 C.3     
  52 C52          -15.0691     7.7250     2.3655 C.3     
  53 C53          -13.9252     7.6101     3.3750 C.3     
  54 N54          -13.8215     8.8589     4.1417 N.3     
  55 C55          -21.1331     6.2993    -0.8252 C.2     
  56 O56          -20.9610     6.7478     0.2884 O.2     
  57 N57          -18.8617     5.4688    -0.6257 N.am    
  58 C58          -20.0296     5.5329    -1.5078 C.3     
  59 C59          -20.5112     4.1147    -1.8201 C.3     
  60 C60          -19.4540     3.3878    -2.6106 C.2     
  61 C61          -19.3904     3.2782    -3.9470 C.2     
  62 N62          -18.2905     2.5464    -4.3033 N.pl3   
  63 C63          -17.6019     2.1573    -3.1763 C.ar    
  64 C64          -16.4428     1.4166    -2.9703 C.ar    
  65 C65          -15.9935     1.1915    -1.6873 C.ar    
  66 C66          -16.6862     1.6968    -0.5959 C.ar    
  67 C67          -17.8275     2.4267    -0.7753 C.ar    
  68 C68          -18.2972     2.6722    -2.0667 C.ar    
  69 C69          -24.7151     6.8043    -1.3521 C.2     
  70 O70          -24.7628     5.9607    -2.2221 O.2     
  71 N71          -22.3113     6.4863    -1.4523 N.am    
  72 C72          -23.3841     7.2314    -0.7888 C.3     
  73 C73          -23.1869     8.7299    -1.0265 C.3     
  74 C74          -21.8952     9.1884    -0.3467 C.3     
  75 S75          -21.6614    10.9651    -0.6285 S.3     
  76 C76          -20.1067    11.3146     0.2382 C.3     
  77 C77          -28.1486     8.0550    -1.2538 C.2     
  78 O78          -27.8151     9.0911    -0.7188 O.2     
  79 N79          -25.8523     7.3599    -0.8890 N.am    
  80 C80          -27.1462     6.9447    -1.4366 C.3     
  81 C81          -27.6323     5.6929    -0.7033 C.3     
  82 C82          -26.6937     4.5485    -0.9867 C.ar    
  83 C83          -25.6058     4.3267    -0.1633 C.ar    
  84 C84          -24.7448     3.2769    -0.4233 C.ar    
  85 C85          -24.9720     2.4486    -1.5064 C.ar    
  86 C86          -26.0605     2.6698    -2.3293 C.ar    
  87 C87          -26.9239     3.7170    -2.0668 C.ar    
  88 C88          -31.7812     8.3971    -1.4775 C.2     
  89 O89          -31.9421     7.2052    -1.5929 O.2     
  90 N90          -29.4157     7.8966    -1.6848 N.am    
  91 C91          -30.3902     8.9760    -1.5072 C.3     
  92 C92          -30.2739     9.9645    -2.6692 C.3     
  93 O93          -32.8415     9.2056    -1.3228 O.3     
  94 C94            2.8517     2.4966    -2.6289 C.2     
  95 O95            3.5700     2.6312    -1.6610 O.2     
  96 C96           18.3939     2.5167   -13.0993 C.3     
  97 C97           17.7826     2.6068   -11.6996 C.3     
  98 C98           16.2596     2.5011   -11.8005 C.3     
  99 C99           15.6483     2.5913   -10.4008 C.3     
 100 C100          14.1253     2.4856   -10.5017 C.3     
 101 C101          13.5140     2.5757    -9.1020 C.3     
 102 C102          11.9910     2.4700    -9.2029 C.3     
 103 C103          11.3797     2.5602    -7.8032 C.3     
 104 C104           9.8567     2.4545    -7.9040 C.3     
 105 C105           9.2454     2.5446    -6.5044 C.3     
 106 C106           7.7224     2.4389    -6.6052 C.3     
 107 C107           7.1111     2.5291    -5.2055 C.3     
 108 C108           5.5881     2.4234    -5.3064 C.3     
 109 C109           4.9769     2.5135    -3.9067 C.3     
 110 C110           3.4538     2.4078    -4.0076 C.3     
 111 H111           0.9405     2.3189    -3.2457 H       
 112 H112           1.5915     2.0276    -0.4139 H       
 113 H113           0.3986     4.0487     0.2827 H       
 114 H114           2.4421     4.6446    -1.9050 H       
 115 H115           1.9625     5.7578    -0.6015 H       
 116 H116           2.8203     4.2477    -0.2116 H       
 117 H117           0.0416     4.5673    -2.5515 H       
 118 H118          -0.7708     2.1279     0.8370 H       
 119 H119          -2.5349     0.4052    -0.7365 H       
 120 H120          -2.6985     1.4645     2.1197 H       
 121 H121          -3.8768     0.3467     1.3914 H       
 122 H122          -1.5169    -1.9158     3.0069 H       
 123 H123          -5.1014     1.0951    -0.2895 H       
 124 H124          -5.4303     3.9929    -0.4386 H       
 125 H125          -6.0653     2.1584    -2.7924 H       
 126 H126          -6.6069     3.8482    -2.6537 H       
 127 H127          -4.2463     4.5926    -2.5051 H       
 128 H128          -3.7047     2.9028    -2.6438 H       
 129 H129          -4.7947     2.7356    -4.8647 H       
 130 H130          -5.3363     4.4255    -4.7261 H       
 131 H131          -2.5363     4.3558    -4.3636 H       
 132 H132          -1.8290     4.8602    -7.7474 H       
 133 H133          -4.9898     3.7726    -6.8403 H       
 134 H134          -4.0149     4.1920    -8.1427 H       
 135 H135          -8.0383     4.3206    -1.0334 H       
 136 H136          -9.6161     2.0839    -0.0158 H       
 137 H137          -9.3657     4.7218     1.4967 H       
 138 H138         -10.6001     3.4822     1.8250 H       
 139 H139          -7.5897     2.9939     1.9114 H       
 140 H140          -9.6111     3.3674     4.1677 H       
 141 H141          -7.8990     2.9250     4.3707 H       
 142 H142          -8.3339     4.5222     3.7166 H       
 143 H143          -8.9645     1.0038     1.3654 H       
 144 H144          -8.2673     0.8703     2.9977 H       
 145 H145          -9.9794     1.3128     2.7947 H       
 146 H146         -12.0976     3.1032     0.2403 H       
 147 H147         -12.5248     5.2679    -1.6727 H       
 148 H148         -13.4732     2.4166    -2.2011 H       
 149 H149         -14.0320     3.8496    -3.0970 H       
 150 H150         -11.6987     4.3285    -3.7863 H       
 151 H151         -11.1400     2.8955    -2.8904 H       
 152 H152         -12.5620     1.4492    -4.3168 H       
 153 H153         -13.1208     2.8822    -5.2127 H       
 154 H154         -10.2978     2.8340    -5.2823 H       
 155 H155         -10.1476     1.0261    -8.2679 H       
 156 H156         -13.0948     1.0144    -6.4483 H       
 157 H157         -12.3495     0.4359    -7.8385 H       
 158 H158         -15.2019     5.3526    -1.9702 H       
 159 H159         -16.5377     4.3989     0.4451 H       
 160 H160         -16.1236     7.3679    -0.1227 H       
 161 H161         -17.2565     6.7191     1.0872 H       
 162 H162         -15.3745     5.5958     2.2470 H       
 163 H163         -14.2416     6.2447     1.0371 H       
 164 H164         -14.8717     8.5536     1.6854 H       
 165 H165         -16.0046     7.9048     2.8953 H       
 166 H166         -14.1226     6.7815     4.0551 H       
 167 H167         -12.9897     7.4304     2.8452 H       
 168 H168         -13.0725     8.8081     4.8159 H       
 169 H169         -13.7028     9.6511     3.5282 H       
 170 H170         -18.9745     5.5445     0.3348 H       
 171 H171         -19.7572     6.0366    -2.4352 H       
 172 H172         -20.6991     3.5813    -0.8883 H       
 173 H173         -21.4312     4.1635    -2.4027 H       
 174 H174         -20.1022     3.7043    -4.6385 H       
 175 H175         -18.0341     2.3334    -5.2143 H       
 176 H176         -15.8970     1.0189    -3.8131 H       
 177 H177         -15.0935     0.6159    -1.5294 H       
 178 H178         -16.3205     1.5113     0.4033 H       
 179 H179         -18.3615     2.8164     0.0788 H       
 180 H180         -22.4490     6.1276    -2.3430 H       
 181 H181         -23.3602     7.0270     0.2816 H       
 182 H182         -23.1220     8.9224    -2.0974 H       
 183 H183         -24.0315     9.2782    -0.6093 H       
 184 H184         -21.9601     8.9959     0.7242 H       
 185 H185         -21.0506     8.6401    -0.7639 H       
 186 H186         -19.8626    12.3718     0.1346 H       
 187 H187         -20.2163    11.0688     1.2945 H       
 188 H188         -19.3068    10.7131    -0.1936 H       
 189 H189         -25.8142     8.0346    -0.1932 H       
 190 H190         -27.0375     6.7245    -2.4986 H       
 191 H191         -27.6561     5.8863     0.3691 H       
 192 H192         -28.6337     5.4356    -1.0484 H       
 193 H193         -25.4282     4.9738     0.6829 H       
 194 H194         -23.8944     3.1041     0.2197 H       
 195 H195         -24.2990     1.6289    -1.7099 H       
 196 H196         -26.2379     2.0229    -3.1757 H       
 197 H197         -27.7764     3.8876    -2.7076 H       
 198 H198         -29.6825     7.0680    -2.1127 H       
 199 H199         -30.1920     9.4936    -0.5686 H       
 200 H200         -30.9989    10.7676    -2.5370 H       
 201 H201         -29.2678    10.3832    -2.6907 H       
 202 H202         -30.4721     9.4469    -3.6077 H       
 203 H203         -33.7137     8.7882    -1.3099 H       
 204 H204          19.4789     2.5920   -13.0275 H       
 205 H205          18.1251     1.5624   -13.5524 H       
 206 H206          18.0132     3.3314   -13.7152 H       
 207 H207          18.1634     1.7921   -11.0837 H       
 208 H208          18.0514     3.5611   -11.2466 H       
 209 H209          15.8789     3.3158   -12.4164 H       
 210 H210          15.9908     1.5469   -12.2536 H       
 211 H211          16.0291     1.7766    -9.7849 H       
 212 H212          15.9171     3.5455    -9.9477 H       
 213 H213          13.7446     3.3003   -11.1176 H       
 214 H214          13.8566     1.5313   -10.9548 H       
 215 H215          13.8948     1.7610    -8.4861 H       
 216 H216          13.7828     3.5300    -8.6489 H       
 217 H217          11.6103     3.2847    -9.8188 H       
 218 H218          11.7223     1.5158    -9.6560 H       
 219 H219          11.7605     1.7455    -7.1873 H       
 220 H220          11.6485     3.5144    -7.3501 H       
 221 H221           9.4760     3.2692    -8.5200 H       
 222 H222           9.5880     1.5002    -8.3571 H       
 223 H223           9.6262     1.7299    -5.8884 H       
 224 H224           9.5142     3.4989    -6.0513 H       
 225 H225           7.3417     3.2536    -7.2211 H       
 226 H226           7.4537     1.4847    -7.0583 H       
 227 H227           7.4919     1.7143    -4.5896 H       
 228 H228           7.3799     3.4833    -4.7525 H       
 229 H229           5.2074     3.2381    -5.9223 H       
 230 H230           5.3194     1.4691    -5.7595 H       
 231 H231           5.3576     1.6988    -3.2908 H       
 232 H232           5.2456     3.4678    -3.4536 H       
 233 H233           3.1851     1.4536    -4.4607 H       
 234 H234           3.0731     3.2225    -4.6235 H       
@<TRIPOS>BOND
   1    1    2 2
   2    1    4 1
   3    1   10 am
   4    3   94 am
   5    3    4 1
   6    3  111 1
   7    4    5 1
   8    4  112 1
   9    5    6 1
  10    5    7 1
  11    5  113 1
  12    6  114 1
  13    6  115 1
  14    6  116 1
  15    7  117 1
  16    8    9 2
  17    8   11 1
  18    8   18 am
  19   10   11 1
  20   10  118 1
  21   11   12 1
  22   11  119 1
  23   12   13 1
  24   12  120 1
  25   12  121 1
  26   13   14 2
  27   13   15 1
  28   15  122 1
  29   16   17 2
  30   16   19 1
  31   16   29 am
  32   18   19 1
  33   18  123 1
  34   19   20 1
  35   19  124 1
  36   20   21 1
  37   20  125 1
  38   20  126 1
  39   21   22 1
  40   21  127 1
  41   21  128 1
  42   22   23 1
  43   22  129 1
  44   22  130 1
  45   23   24 1
  46   23  131 1
  47   24   25 2
  48   24   26 1
  49   25  132 1
  50   26  133 1
  51   26  134 1
  52   27   28 2
  53   27   30 1
  54   27   37 am
  55   29   30 1
  56   29  135 1
  57   30   31 1
  58   30  136 1
  59   31   32 1
  60   31  137 1
  61   31  138 1
  62   32   33 1
  63   32   34 1
  64   32  139 1
  65   33  140 1
  66   33  141 1
  67   33  142 1
  68   34  143 1
  69   34  144 1
  70   34  145 1
  71   35   36 2
  72   35   38 1
  73   35   48 am
  74   37   38 1
  75   37  146 1
  76   38   39 1
  77   38  147 1
  78   39   40 1
  79   39  148 1
  80   39  149 1
  81   40   41 1
  82   40  150 1
  83   40  151 1
  84   41   42 1
  85   41  152 1
  86   41  153 1
  87   42   43 1
  88   42  154 1
  89   43   44 2
  90   43   45 1
  91   44  155 1
  92   45  156 1
  93   45  157 1
  94   46   47 2
  95   46   49 1
  96   46   57 am
  97   48   49 1
  98   48  158 1
  99   49   50 1
 100   49  159 1
 101   50   51 1
 102   50  160 1
 103   50  161 1
 104   51   52 1
 105   51  162 1
 106   51  163 1
 107   52   53 1
 108   52  164 1
 109   52  165 1
 110   53   54 1
 111   53  166 1
 112   53  167 1
 113   54  168 1
 114   54  169 1
 115   55   56 2
 116   55   58 1
 117   55   71 am
 118   57   58 1
 119   57  170 1
 120   58   59 1
 121   58  171 1
 122   59   60 1
 123   59  172 1
 124   59  173 1
 125   60   61 2
 126   60   68 1
 127   61   62 1
 128   61  174 1
 129   62   63 1
 130   62  175 1
 131   63   64 ar
 132   63   68 ar
 133   64   65 ar
 134   64  176 1
 135   65   66 ar
 136   65  177 1
 137   66   67 ar
 138   66  178 1
 139   67   68 ar
 140   67  179 1
 141   69   70 2
 142   69   72 1
 143   69   79 am
 144   71   72 1
 145   71  180 1
 146   72   73 1
 147   72  181 1
 148   73   74 1
 149   73  182 1
 150   73  183 1
 151   74   75 1
 152   74  184 1
 153   74  185 1
 154   75   76 1
 155   76  186 1
 156   76  187 1
 157   76  188 1
 158   77   78 2
 159   77   80 1
 160   77   90 am
 161   79   80 1
 162   79  189 1
 163   80   81 1
 164   80  190 1
 165   81   82 1
 166   81  191 1
 167   81  192 1
 168   82   83 ar
 169   82   87 ar
 170   83   84 ar
 171   83  193 1
 172   84   85 ar
 173   84  194 1
 174   85   86 ar
 175   85  195 1
 176   86   87 ar
 177   86  196 1
 178   87  197 1
 179   88   89 2
 180   88   91 1
 181   88   93 1
 182   90   91 1
 183   90  198 1
 184   91   92 1
 185   91  199 1
 186   92  200 1
 187   92  201 1
 188   92  202 1
 189   93  203 1
 190   94   95 2
 191   94  110 1
 192   96   97 1
 193   96  204 1
 194   96  205 1
 195   96  206 1
 196   97   98 1
 197   97  207 1
 198   97  208 1
 199   98   99 1
 200   98  209 1
 201   98  210 1
 202   99  100 1
 203   99  211 1
 204   99  212 1
 205  100  101 1
 206  100  213 1
 207  100  214 1
 208  101  102 1
 209  101  215 1
 210  101  216 1
 211  102  103 1
 212  102  217 1
 213  102  218 1
 214  103  104 1
 215  103  219 1
 216  103  220 1
 217  104  105 1
 218  104  221 1
 219  104  222 1
 220  105  106 1
 221  105  223 1
 222  105  224 1
 223  106  107 1
 224  106  225 1
 225  106  226 1
 226  107  108 1
 227  107  227 1
 228  107  228 1
 229  108  109 1
 230  108  229 1
 231  108  230 1
 232  109  110 1
 233  109  231 1
 234  109  232 1
 235  110  233 1
 236  110  234 1

#	End of record

