#	Name: ASD01001094
#	Creating user name:	WinNT
#	Creation time:	15. 06. 2019 18:55

#	Modifying user name:	WinNT
#	Modification time:	15. 06. 2019 18:55

#	Program:	/corina/corina34_cracker 3.40 0067  02.08.2006

@<TRIPOS>MOLECULE
ASD01001094
  65   68    0    0    0
SMALL
NO_CHARGES


@<TRIPOS>ATOM
   1 C1             0.3345     0.8694    -1.3010 C.2     
   2 N2             0.0046     0.7716     0.0387 N.pl3   
   3 N3            -1.1438     0.0566     0.4011 N.2     
   4 C4            -1.8918    -0.5069    -0.4869 C.2     
   5 N5            -1.6198    -0.4471    -1.8309 N.am    
   6 C6            -0.5372     0.2242    -2.2824 C.2     
   7 C7             1.4906     1.6119    -1.3967 C.2     
   8 C8             1.8558     1.9624    -0.0947 C.2     
   9 C9             0.9329     1.4367     0.7540 C.2     
  10 O10           -0.2890     0.2823    -3.4733 O.2     
  11 C11           -2.5132    -1.1108    -2.7836 C.3     
  12 C12           -3.6594    -0.1924    -3.1209 C.ar    
  13 C13           -3.5115     0.7638    -4.1082 C.ar    
  14 C14           -4.5629     1.6063    -4.4176 C.ar    
  15 C15           -5.7624     1.4922    -3.7400 C.ar    
  16 C16           -5.9106     0.5353    -2.7535 C.ar    
  17 C17           -4.8606    -0.3100    -2.4471 C.ar    
  18 C18           -3.1134    -1.2617    -0.0294 C.3     
  19 N19           -2.7038    -2.3932     0.8061 N.am    
  20 C20           -4.0152    -0.3290     0.7815 C.3     
  21 C21           -5.3246    -1.0473     1.1137 C.3     
  22 C22           -2.0702    -2.1531     2.1050 C.3     
  23 C23           -2.9098    -3.6551     0.3798 C.2     
  24 C24           -3.4558    -3.8987    -0.9724 C.ar    
  25 O25           -2.6467    -4.5928     1.1070 O.2     
  26 C26           -2.8483    -4.8296    -1.8164 C.ar    
  27 C27           -3.3628    -5.0521    -3.0769 C.ar    
  28 C28           -4.4785    -4.3548    -3.5050 C.ar    
  29 C29           -5.0853    -3.4303    -2.6735 C.ar    
  30 C30           -4.5845    -3.2028    -1.4083 C.ar    
  31 C31           -5.0351    -4.6031    -4.8833 C.3     
  32 C32           -3.1367    -2.1622     3.2021 C.3     
  33 C33           -2.4750    -1.9114     4.5586 C.3     
  34 N34           -3.4989    -1.9201     5.6119 N.3     
  35 Cl35           0.9474     1.5976     2.4825 Cl      
  36 H36            2.0145     1.8729    -2.3043 H       
  37 H37            2.7188     2.5471     0.1878 H       
  38 H38           -1.9612    -1.3517    -3.6921 H       
  39 H39           -2.9008    -2.0279    -2.3400 H       
  40 H40           -2.5743     0.8530    -4.6375 H       
  41 H41           -4.4470     2.3538    -5.1884 H       
  42 H42           -6.5836     2.1508    -3.9813 H       
  43 H43           -6.8477     0.4464    -2.2239 H       
  44 H44           -4.9765    -1.0575    -1.6763 H       
  45 H45           -3.6592    -1.6302    -0.8980 H       
  46 H46           -3.5102    -0.0483     1.7058 H       
  47 H47           -4.2298     0.5665     0.1984 H       
  48 H48           -5.8522    -1.2865     0.1903 H       
  49 H49           -5.1069    -1.9671     1.6565 H       
  50 H50           -5.9477    -0.4000     1.7308 H       
  51 H51           -1.3388    -2.9366     2.3029 H       
  52 H52           -1.5705    -1.1845     2.0920 H       
  53 H53           -1.9771    -5.3743    -1.4835 H       
  54 H54           -2.8935    -5.7720    -3.7311 H       
  55 H55           -5.9557    -2.8891    -3.0139 H       
  56 H56           -5.0592    -2.4811    -0.7601 H       
  57 H57           -5.7758    -5.4014    -4.8377 H       
  58 H58           -5.5048    -3.6924    -5.2549 H       
  59 H59           -4.2272    -4.8950    -5.5542 H       
  60 H60           -3.8681    -1.3786     3.0042 H       
  61 H61           -3.6363    -3.1308     3.2151 H       
  62 H62           -1.7435    -2.6950     4.7565 H       
  63 H63           -1.9753    -0.9428     4.5456 H       
  64 H64           -3.0867    -1.7566     6.5183 H       
  65 H65           -4.2237    -1.2457     5.4173 H       
@<TRIPOS>BOND
   1    1    2 1
   2    1    7 2
   3    1    6 1
   4    2    3 1
   5    2    9 1
   6    3    4 2
   7    4    5 1
   8    4   18 1
   9    5    6 am
  10    5   11 1
  11    6   10 2
  12    7    8 1
  13    7   36 1
  14    8    9 2
  15    8   37 1
  16    9   35 1
  17   11   12 1
  18   11   38 1
  19   11   39 1
  20   12   13 ar
  21   12   17 ar
  22   13   14 ar
  23   13   40 1
  24   14   15 ar
  25   14   41 1
  26   15   16 ar
  27   15   42 1
  28   16   17 ar
  29   16   43 1
  30   17   44 1
  31   18   19 1
  32   18   20 1
  33   18   45 1
  34   19   22 1
  35   19   23 am
  36   20   21 1
  37   20   46 1
  38   20   47 1
  39   21   48 1
  40   21   49 1
  41   21   50 1
  42   22   32 1
  43   22   51 1
  44   22   52 1
  45   23   24 1
  46   23   25 2
  47   24   26 ar
  48   24   30 ar
  49   26   27 ar
  50   26   53 1
  51   27   28 ar
  52   27   54 1
  53   28   29 ar
  54   28   31 1
  55   29   30 ar
  56   29   55 1
  57   30   56 1
  58   31   57 1
  59   31   58 1
  60   31   59 1
  61   32   33 1
  62   32   60 1
  63   32   61 1
  64   33   34 1
  65   33   62 1
  66   33   63 1
  67   34   64 1
  68   34   65 1

#	End of record

