#	Name: ASD00960060
#	Creating user name:	WinNT
#	Creation time:	15. 06. 2019 18:53

#	Modifying user name:	WinNT
#	Modification time:	15. 06. 2019 18:53

#	Program:	/corina/corina34_cracker 3.40 0067  02.08.2006

@<TRIPOS>MOLECULE
ASD00960060
  42   45    0    0    0
SMALL
NO_CHARGES


@<TRIPOS>ATOM
   1 C1             0.0200     1.5279     0.1231 C.3     
   2 C2             0.0482    -0.0166     0.1524 C.3     
   3 C3            -0.6895    -0.3808     1.4599 C.3     
   4 O4            -1.5347     0.7573     1.7360 O.3     
   5 C5            -0.7314     1.9142     1.4164 C.3     
   6 C6            -1.6250     3.1314     1.1699 C.3     
   7 C7            -1.5251    -1.6194     1.2632 C.2     
   8 C8            -1.0761    -2.8914     1.3775 C.2     
   9 N9            -2.8430    -1.6321     0.9505 N.pl3   
  10 C10           -3.2627    -2.9404     0.8531 C.2     
  11 C11           -2.1603    -3.7562     1.1196 C.2     
  12 N12           -3.7818    -0.6147     0.7255 N.2     
  13 C13           -5.0172    -0.9187     0.4325 C.2     
  14 N14           -5.4343    -2.1787     0.3361 N.2     
  15 C15           -4.6118    -3.1968     0.5334 C.2     
  16 O16           -2.2773     3.4978     2.3873 O.3     
  17 N17           -5.0699    -4.4956     0.4273 N.pl3   
  18 C18           -2.1349    -5.2284     1.1288 C.2     
  19 N19           -1.2502    -5.9856     0.5181 N.2     
  20 C20           -1.5511    -7.2726     0.7549 C.2     
  21 C21           -2.6484    -7.3040     1.5308 C.2     
  22 O22           -3.0095    -6.0257     1.7684 O.3     
  23 C23           -0.6918    -0.5894    -1.0581 C.3     
  24 O24            1.3953    -0.4923     0.1851 O.3     
  25 *25            2.1611    -0.1239    -0.9400 Du      
  26 O26            1.3488     2.0534     0.1401 O.3     
  27 *27            1.4852     3.2895    -0.5244 Du      
  28 H28           -0.5191     1.8835    -0.7550 H       
  29 H29            0.0246    -0.5286     2.2700 H       
  30 H30           -0.0237     2.1184     2.2198 H       
  31 H31           -1.0156     3.9644     0.8192 H       
  32 H32           -2.3733     2.8861     0.4162 H       
  33 H33           -0.0677    -3.1907     1.6221 H       
  34 H34           -5.7247    -0.1205     0.2629 H       
  35 H35           -2.8615     4.2640     2.3053 H       
  36 H36           -6.0189    -4.6682     0.3243 H       
  37 H37           -4.4427    -5.2350     0.4559 H       
  38 H38           -1.0078    -8.1305     0.3872 H       
  39 H39           -3.1467    -8.1887     1.8988 H       
  40 H40           -0.1969    -0.2649    -1.9734 H       
  41 H41           -0.6838    -1.6781    -1.0071 H       
  42 H42           -1.7219    -0.2331    -1.0562 H       
@<TRIPOS>BOND
   1    1    2 1
   2    1   26 1
   3    1    5 1
   4    1   28 1
   5    2   23 1
   6    2   24 1
   7    2    3 1
   8    3    4 1
   9    3    7 1
  10    3   29 1
  11    4    5 1
  12    5    6 1
  13    5   30 1
  14    6   16 1
  15    6   31 1
  16    6   32 1
  17    7    8 2
  18    7    9 1
  19    8   11 1
  20    8   33 1
  21    9   10 1
  22    9   12 1
  23   10   11 2
  24   10   15 1
  25   11   18 1
  26   12   13 2
  27   13   14 1
  28   13   34 1
  29   14   15 2
  30   15   17 1
  31   16   35 1
  32   17   36 1
  33   17   37 1
  34   18   19 2
  35   18   22 1
  36   19   20 1
  37   20   21 2
  38   20   38 1
  39   21   22 1
  40   21   39 1
  41   23   40 1
  42   23   41 1
  43   23   42 1
  44   24   25 1
  45   26   27 1

#	End of record

