#	Name: ASD03491001
#	Creating user name:	WinNT
#	Creation time:	15. 06. 2019 20:42

#	Modifying user name:	WinNT
#	Modification time:	15. 06. 2019 20:42

#	Program:	/corina/corina34_cracker 3.40 0067  02.08.2006

@<TRIPOS>MOLECULE
ASD03491001
  66   69    0    0    0
SMALL
NO_CHARGES


@<TRIPOS>ATOM
   1 C1             0.0678     1.4448     0.4734 C.ar    
   2 C2             0.2909     0.3058     1.2251 C.ar    
   3 C3             1.4797    -0.3857     1.0978 C.ar    
   4 C4             2.4518     0.0643     0.2134 C.ar    
   5 C5             2.2243     1.2092    -0.5403 C.ar    
   6 C6             1.0336     1.8956    -0.4081 C.ar    
   7 C7             0.7858     3.1371    -1.2256 C.3     
   8 N8             3.6559    -0.6326     0.0825 N.am    
   9 C9             3.6696    -1.9772     0.1737 C.2     
  10 O10            2.6518    -2.5772     0.4533 O.2     
  11 C11            4.9780    -4.1754     0.1427 C.ar    
  12 C12            6.2446    -4.9050     0.0446 C.ar    
  13 C13            6.2477    -6.3035     0.2557 C.ar    
  14 C14            5.0351    -6.9630     0.5546 C.ar    
  15 C15            3.8526    -6.2517     0.6408 C.ar    
  16 C16            3.8134    -4.8853     0.4474 C.ar    
  17 C17            7.4424    -4.2482    -0.2525 C.ar    
  18 C18            8.6019    -4.9636    -0.3356 C.ar    
  19 C19            8.6080    -6.3393    -0.1283 C.ar    
  20 C20            7.4570    -7.0092     0.1634 C.ar    
  21 O21            5.0304    -8.3017     0.7579 O.3     
  22 C22            3.7714    -8.9082     1.0565 C.3     
  23 C23            3.9641   -10.4133     1.2525 C.3     
  24 N24            4.8000   -10.6498     2.4372 N.3     
  25 C25            4.8130   -12.0752     2.7968 C.3     
  26 C26            5.7407   -12.2848     3.9965 C.3     
  27 O27            5.3063   -11.4573     5.0790 O.3     
  28 C28            5.2821   -10.0626     4.7637 C.3     
  29 C29            4.3497    -9.8304     3.5717 C.3     
  30 C30            0.8489     2.7887    -2.7140 C.3     
  31 C31           -0.5971     3.7000    -0.8916 C.3     
  32 C32            1.8542     4.1832    -0.9010 C.3     
  33 C33            4.9341    -2.7276    -0.0686 C.2     
  34 O34            5.9291    -2.1374    -0.4416 O.2     
  35 H35           -0.8645     1.9811     0.5716 H       
  36 H36           -0.4652    -0.0432     1.9128 H       
  37 H37            1.6534    -1.2750     1.6855 H       
  38 H38            2.9782     1.5619    -1.2286 H       
  39 H39            4.4818    -0.1486    -0.0741 H       
  40 H40            2.9375    -6.7773     0.8702 H       
  41 H41            2.8720    -4.3613     0.5225 H       
  42 H42            7.4502    -3.1807    -0.4158 H       
  43 H43            9.5266    -4.4552    -0.5655 H       
  44 H44            9.5377    -6.8843    -0.1996 H       
  45 H45            7.4758    -8.0772     0.3224 H       
  46 H46            3.3653    -8.4720     1.9691 H       
  47 H47            3.0800    -8.7348     0.2319 H       
  48 H48            2.9932   -10.8888     1.3921 H       
  49 H49            4.4520   -10.8347     0.3736 H       
  50 H50            3.8038   -12.3942     3.0570 H       
  51 H51            5.1738   -12.6606     1.9510 H       
  52 H52            5.7094   -13.3305     4.3024 H       
  53 H53            6.7602   -12.0163     3.7195 H       
  54 H54            4.9190    -9.5011     5.6245 H       
  55 H55            6.2882    -9.7294     4.5091 H       
  56 H56            4.3722    -8.7772     3.2917 H       
  57 H57            3.3330   -10.1135     3.8443 H       
  58 H58            0.0878     2.0435    -2.9453 H       
  59 H59            0.6696     3.6867    -3.3053 H       
  60 H60            1.8341     2.3877    -2.9519 H       
  61 H61           -0.6420     3.9482     0.1688 H       
  62 H62           -0.7764     4.5980    -1.4829 H       
  63 H63           -1.3582     2.9548    -1.1229 H       
  64 H64            2.8394     3.7822    -1.1388 H       
  65 H65            1.6749     5.0812    -1.4922 H       
  66 H66            1.8093     4.4314     0.1595 H       
@<TRIPOS>BOND
   1    1    2 ar
   2    1    6 ar
   3    1   35 1
   4    2    3 ar
   5    2   36 1
   6    3    4 ar
   7    3   37 1
   8    4    5 ar
   9    4    8 1
  10    5    6 ar
  11    5   38 1
  12    6    7 1
  13    7   30 1
  14    7   31 1
  15    7   32 1
  16    8    9 am
  17    8   39 1
  18    9   10 2
  19    9   33 1
  20   11   12 ar
  21   11   33 1
  22   11   16 ar
  23   12   13 ar
  24   12   17 ar
  25   13   14 ar
  26   13   20 ar
  27   14   15 ar
  28   14   21 1
  29   15   16 ar
  30   15   40 1
  31   16   41 1
  32   17   18 ar
  33   17   42 1
  34   18   19 ar
  35   18   43 1
  36   19   20 ar
  37   19   44 1
  38   20   45 1
  39   21   22 1
  40   22   23 1
  41   22   46 1
  42   22   47 1
  43   23   24 1
  44   23   48 1
  45   23   49 1
  46   24   25 1
  47   24   29 1
  48   25   26 1
  49   25   50 1
  50   25   51 1
  51   26   27 1
  52   26   52 1
  53   26   53 1
  54   27   28 1
  55   28   29 1
  56   28   54 1
  57   28   55 1
  58   29   56 1
  59   29   57 1
  60   30   58 1
  61   30   59 1
  62   30   60 1
  63   31   61 1
  64   31   62 1
  65   31   63 1
  66   32   64 1
  67   32   65 1
  68   32   66 1
  69   33   34 2

#	End of record

