#	Name: ASD01910555
#	Creating user name:	WinNT
#	Creation time:	15. 06. 2019 19:56

#	Modifying user name:	WinNT
#	Modification time:	15. 06. 2019 19:56

#	Program:	/corina/corina34_cracker 3.40 0067  02.08.2006

@<TRIPOS>MOLECULE
ASD01910555
  42   45    0    0    0
SMALL
NO_CHARGES


@<TRIPOS>ATOM
   1 N1             0.1134     0.5759    -0.2602 N.2     
   2 C2             0.2776    -0.7552    -0.2130 C.2     
   3 N3             1.5781    -0.9730    -0.1579 N.2     
   4 N4             2.1701     0.1717    -0.1713 N.pl3   
   5 N5             1.2883     1.1074    -0.2329 N.2     
   6 C6            -0.7908    -1.7787    -0.2204 C.2     
   7 C7            -2.1302    -1.5388    -0.2772 C.2     
   8 C8            -2.7794    -2.7842    -0.2622 C.2     
   9 C9            -1.8289    -3.7414    -0.1972 C.2     
  10 N10           -0.6076    -3.1369    -0.1771 N.pl3   
  11 C11            3.9790     1.2009     1.1170 C.3     
  12 C12            3.6199     0.3760    -0.1229 C.3     
  13 C13            4.0722     1.1259    -1.3781 C.3     
  14 C14            5.5910     1.3110    -1.3443 C.3     
  15 C15            5.9724     2.1464    -0.1182 C.3     
  16 N16            5.4156     1.5068     1.0817 N.am    
  17 C17            6.2077     1.2061     2.1298 C.2     
  18 C18            5.6147     0.6834     3.3778 C.ar    
  19 O19            7.4102     1.3650     2.0483 O.2     
  20 C20            6.2354    -0.3625     4.0642 C.ar    
  21 C21            5.6780    -0.8461     5.2284 C.ar    
  22 C22            4.5033    -0.2960     5.7182 C.ar    
  23 C23            3.8827     0.7422     5.0405 C.ar    
  24 C24            4.4345     1.2373     3.8785 C.ar    
  25 F25            3.9612    -0.7738     6.8598 F       
  26 H26           -2.6053    -0.5701    -0.3247 H       
  27 H27           -3.8465    -2.9470    -0.2959 H       
  28 H28           -2.0066    -4.8064    -0.1705 H       
  29 H29            0.2482    -3.5914    -0.1327 H       
  30 H30            3.4076     2.1291     1.1164 H       
  31 H31            3.7493     0.6285     2.0157 H       
  32 H32            4.1226    -0.5900    -0.0753 H       
  33 H33            3.7959     0.5525    -2.2629 H       
  34 H34            3.5881     2.1019    -1.4122 H       
  35 H35            6.0751     0.3361    -1.2852 H       
  36 H36            5.9152     1.8244    -2.2495 H       
  37 H37            7.0580     2.1979    -0.0344 H       
  38 H38            5.5636     3.1517    -0.2194 H       
  39 H39            7.1502    -0.7918     3.6833 H       
  40 H40            6.1570    -1.6551     5.7598 H       
  41 H41            2.9676     1.1668     5.4262 H       
  42 H42            3.9505     2.0462     3.3515 H       
@<TRIPOS>BOND
   1    1    2 1
   2    1    5 2
   3    2    3 2
   4    2    6 1
   5    3    4 1
   6    4    5 1
   7    4   12 1
   8    6    7 2
   9    6   10 1
  10    7    8 1
  11    7   26 1
  12    8    9 2
  13    8   27 1
  14    9   10 1
  15    9   28 1
  16   10   29 1
  17   11   12 1
  18   11   16 1
  19   11   30 1
  20   11   31 1
  21   12   13 1
  22   12   32 1
  23   13   14 1
  24   13   33 1
  25   13   34 1
  26   14   15 1
  27   14   35 1
  28   14   36 1
  29   15   16 1
  30   15   37 1
  31   15   38 1
  32   16   17 am
  33   17   18 1
  34   17   19 2
  35   18   20 ar
  36   18   24 ar
  37   20   21 ar
  38   20   39 1
  39   21   22 ar
  40   21   40 1
  41   22   23 ar
  42   22   25 1
  43   23   24 ar
  44   23   41 1
  45   24   42 1

#	End of record

