#	Name: ASD01882496
#	Creating user name:	WinNT
#	Creation time:	15. 06. 2019 19:44

#	Modifying user name:	WinNT
#	Modification time:	15. 06. 2019 19:44

#	Program:	/corina/corina34_cracker 3.40 0067  02.08.2006

@<TRIPOS>MOLECULE
ASD01882496
  54   59    0    0    0
SMALL
NO_CHARGES


@<TRIPOS>ATOM
   1 C1            -0.0184     1.5040     0.0103 C.3     
   2 C2             0.0021    -0.0041     0.0020 C.2     
   3 C3             1.2644    -0.3981    -0.0125 C.2     
   4 C4             2.1803     0.7579    -0.0152 C.ar    
   5 C5             3.5746     0.8436    -0.0289 C.ar    
   6 C6             4.1881     2.0786    -0.0281 C.ar    
   7 C7             3.4296     3.2358    -0.0137 C.ar    
   8 C8             2.0472     3.1605     0.0002 C.ar    
   9 C9             1.4254     1.9334    -0.0012 C.ar    
  10 N10           -2.8293     2.1309     0.0398 N.3     
  11 C11           -2.2077     1.6020    -1.1810 C.3     
  12 C12           -0.7379     2.0279    -1.2318 C.3     
  13 C13           -0.7145     2.0147     1.2710 C.3     
  14 C14           -2.1850     1.5894     1.2432 C.3     
  15 C15           -4.2742     1.8664     0.0519 C.3     
  16 C16           -5.9044     3.7082     2.9222 C.2     
  17 C17           -5.3859     3.4198     1.6440 C.2     
  18 C18           -4.8341     2.1973     1.4113 C.2     
  19 C19           -4.7891     1.2449     2.4438 C.2     
  20 C20           -5.2898     1.5357     3.6628 C.2     
  21 N21           -5.8461     2.7565     3.9103 N.pl3   
  22 N22           -6.7824     4.5358     4.6788 N.2     
  23 N23           -6.4829     4.7743     3.4503 N.2     
  24 C24           -6.4158     3.3238     5.0078 C.2     
  25 C25           -6.5913     2.6751     6.3567 C.3     
  26 C26           -5.3619     2.9580     7.2224 C.3     
  27 C27           -5.3966     2.4814     8.6759 C.3     
  28 C28           -4.5124     1.7615     7.6557 C.3     
  29 Cl29          -5.4504     4.6091     0.3810 Cl      
  30 H30           -0.8636    -0.6498     0.0074 H       
  31 H31            1.5826    -1.4302    -0.0212 H       
  32 H32            4.1714    -0.0565    -0.0398 H       
  33 H33            5.2661     2.1429    -0.0384 H       
  34 H34            3.9169     4.1996    -0.0130 H       
  35 H35            1.4571     4.0649     0.0122 H       
  36 H36           -2.2707     0.5138    -1.1785 H       
  37 H37           -2.7299     1.9940    -2.0537 H       
  38 H38           -0.6749     3.1158    -1.2572 H       
  39 H39           -0.2698     1.6145    -2.1251 H       
  40 H40           -0.2299     1.5920     2.1511 H       
  41 H41           -0.6508     3.1023     1.3067 H       
  42 H42           -2.6908     1.9723     2.1295 H       
  43 H43           -2.2483     0.5013     1.2306 H       
  44 H44           -4.7629     2.4833    -0.7023 H       
  45 H45           -4.4528     0.8139    -0.1682 H       
  46 H46           -4.3516     0.2746     2.2606 H       
  47 H47           -5.2500     0.7958     4.4486 H       
  48 H48           -7.4788     3.0808     6.8423 H       
  49 H49           -6.7065     1.5986     6.2299 H       
  50 H50           -4.8437     3.8935     7.0117 H       
  51 H51           -4.9009     3.1033     9.4214 H       
  52 H52           -6.2952     1.9664     9.0153 H       
  53 H53           -4.8294     0.7728     7.3239 H       
  54 H54           -3.4351     1.9097     7.7299 H       
@<TRIPOS>BOND
   1    1    2 1
   2    1    9 1
   3    1   12 1
   4    1   13 1
   5    2    3 2
   6    2   30 1
   7    3    4 1
   8    3   31 1
   9    4    5 ar
  10    4    9 ar
  11    5    6 ar
  12    5   32 1
  13    6    7 ar
  14    6   33 1
  15    7    8 ar
  16    7   34 1
  17    8    9 ar
  18    8   35 1
  19   10   11 1
  20   10   14 1
  21   10   15 1
  22   11   12 1
  23   11   36 1
  24   11   37 1
  25   12   38 1
  26   12   39 1
  27   13   14 1
  28   13   40 1
  29   13   41 1
  30   14   42 1
  31   14   43 1
  32   15   18 1
  33   15   44 1
  34   15   45 1
  35   16   17 1
  36   16   21 1
  37   16   23 2
  38   17   18 2
  39   17   29 1
  40   18   19 1
  41   19   20 2
  42   19   46 1
  43   20   21 1
  44   20   47 1
  45   21   24 1
  46   22   23 1
  47   22   24 2
  48   24   25 1
  49   25   26 1
  50   25   48 1
  51   25   49 1
  52   26   27 1
  53   26   28 1
  54   26   50 1
  55   27   28 1
  56   27   51 1
  57   27   52 1
  58   28   53 1
  59   28   54 1

#	End of record

