#	Name: ASD02198482
#	Creating user name:	WinNT
#	Creation time:	15. 06. 2019 20:19

#	Modifying user name:	WinNT
#	Modification time:	15. 06. 2019 20:19

#	Program:	/corina/corina34_cracker 3.40 0067  02.08.2006

@<TRIPOS>MOLECULE
ASD02198482
  41   44    0    0    0
SMALL
NO_CHARGES


@<TRIPOS>ATOM
   1 C1            -0.0438     1.5049    -0.1138 C.2     
   2 C2            -0.0744     0.1653     0.0990 C.2     
   3 N3             1.0697    -0.5370     0.2618 N.pl3   
   4 N4             2.2345    -0.0032     0.2273 N.2     
   5 C5             2.4070     1.2857     0.0284 C.2     
   6 C6             1.2216     2.1380    -0.1597 C.2     
   7 C7             0.9773    -1.9157     0.4791 C.ar    
   8 C8             1.4829    -3.8479     1.8066 C.ar    
   9 C9             0.7944    -4.6430     0.9090 C.ar    
  10 C10            0.2017    -4.0790    -0.2062 C.ar    
  11 C11            0.2910    -2.7185    -0.4238 C.ar    
  12 C12            3.7645     1.8669    -0.0046 C.2     
  13 N13            4.3069     2.6059    -1.0182 N.pl3   
  14 N14            5.6090     2.9570    -0.6406 N.2     
  15 C15            5.8524     2.4581     0.5452 C.2     
  16 C16            4.7202     1.7711     0.9830 C.2     
  17 C17            3.6743     2.9498    -2.2196 C.ar    
  18 C18            2.9076     2.0101    -2.8960 C.ar    
  19 O19            1.3254     3.3408    -0.3479 O.2     
  20 C20            1.5761    -2.4862     1.5950 C.ar    
  21 C21            3.8079     4.2328    -2.7339 C.ar    
  22 C22            3.1829     4.5687    -3.9188 C.ar    
  23 C23            2.4247     3.6291    -4.5929 C.ar    
  24 C24            2.2851     2.3523    -4.0805 C.ar    
  25 C25            2.3272    -1.6204     2.5735 C.3     
  26 H26           -0.9549     2.0691    -0.2483 H       
  27 H27           -1.0246    -0.3465     0.1393 H       
  28 H28            1.9445    -4.2914     2.6764 H       
  29 H29            0.7233    -5.7076     1.0767 H       
  30 H30           -0.3351    -4.7030    -0.9055 H       
  31 H31           -0.1723    -2.2787    -1.2946 H       
  32 H32            6.7761     2.5639     1.0948 H       
  33 H33            4.6141     1.2520     1.9241 H       
  34 H34            2.7984     1.0127    -2.4965 H       
  35 H35            4.3996     4.9672    -2.2077 H       
  36 H36            3.2861     5.5665    -4.3191 H       
  37 H37            1.9367     3.8943    -5.5191 H       
  38 H38            1.6926     1.6205    -4.6095 H       
  39 H39            1.6438    -1.2687     3.3464 H       
  40 H40            3.1273    -2.2010     3.0327 H       
  41 H41            2.7537    -0.7653     2.0491 H       
@<TRIPOS>BOND
   1    1    2 2
   2    1    6 1
   3    1   26 1
   4    2    3 1
   5    2   27 1
   6    3    4 1
   7    3    7 1
   8    4    5 2
   9    5    6 1
  10    5   12 1
  11    6   19 2
  12    7   20 ar
  13    7   11 ar
  14    8    9 ar
  15    8   20 ar
  16    8   28 1
  17    9   10 ar
  18    9   29 1
  19   10   11 ar
  20   10   30 1
  21   11   31 1
  22   12   13 1
  23   12   16 2
  24   13   14 1
  25   13   17 1
  26   14   15 2
  27   15   16 1
  28   15   32 1
  29   16   33 1
  30   17   21 ar
  31   17   18 ar
  32   18   24 ar
  33   18   34 1
  34   20   25 1
  35   21   22 ar
  36   21   35 1
  37   22   23 ar
  38   22   36 1
  39   23   24 ar
  40   23   37 1
  41   24   38 1
  42   25   39 1
  43   25   40 1
  44   25   41 1

#	End of record

