#	Name: ASD01900388
#	Creating user name:	WinNT
#	Creation time:	15. 06. 2019 19:51

#	Modifying user name:	WinNT
#	Modification time:	15. 06. 2019 19:51

#	Program:	/corina/corina34_cracker 3.40 0067  02.08.2006

@<TRIPOS>MOLECULE
ASD01900388
  27   29    0    0    0
SMALL
NO_CHARGES


@<TRIPOS>ATOM
   1 C1            -0.0470     1.3397    -0.2436 C.ar    
   2 C2            -0.0147    -0.0429    -0.1166 C.ar    
   3 N3             1.1223    -0.6999    -0.0821 N.ar    
   4 C4             2.2914    -0.0697    -0.1676 C.ar    
   5 C5             2.3343     1.3315    -0.2985 C.ar    
   6 C6             1.1368     2.0449    -0.3364 C.ar    
   7 C7             3.6854    -0.5194    -0.1587 C.2     
   8 N8             4.4454     0.5371    -0.2746 N.2     
   9 N9             3.6554     1.6880    -0.3626 N.pl3   
  10 N10            4.1242    -1.8424    -0.0460 N.pl3   
  11 C11            5.4788    -2.1389    -0.1658 C.ar    
  12 C12            6.0107    -3.2365     0.5036 C.ar    
  13 C13            6.2972    -1.3395    -0.9598 C.ar    
  14 C14            7.6369    -1.6289    -1.0810 C.ar    
  15 C15            8.1774    -2.7278    -0.4056 C.ar    
  16 C16            7.3516    -3.5328     0.3871 C.ar    
  17 Cl17           8.0166    -4.8979     1.2285 Cl      
  18 C18            9.5712    -3.0320    -0.5295 C.1     
  19 N19           10.6769    -3.2733    -0.6278 N.1     
  20 H20           -0.9928     1.8602    -0.2740 H       
  21 H21           -0.9435    -0.5891    -0.0444 H       
  22 H22            1.1350     3.1203    -0.4364 H       
  23 H23            3.9897     2.5939    -0.4548 H       
  24 H24            3.4845    -2.5534     0.1156 H       
  25 H25            5.3723    -3.8566     1.1153 H       
  26 H26            5.8796    -0.4911    -1.4817 H       
  27 H27            8.2703    -1.0083    -1.6974 H       
@<TRIPOS>BOND
   1    1    2 ar
   2    1    6 ar
   3    1   20 1
   4    2    3 ar
   5    2   21 1
   6    3    4 ar
   7    4    5 ar
   8    4    7 1
   9    5    6 ar
  10    5    9 1
  11    6   22 1
  12    7    8 2
  13    7   10 1
  14    8    9 1
  15    9   23 1
  16   10   11 1
  17   10   24 1
  18   11   12 ar
  19   11   13 ar
  20   12   16 ar
  21   12   25 1
  22   13   14 ar
  23   13   26 1
  24   14   15 ar
  25   14   27 1
  26   15   16 ar
  27   15   18 1
  28   16   17 1
  29   18   19 3

#	End of record

