#	Name: ASD01910427
#	Creating user name:	WinNT
#	Creation time:	15. 06. 2019 19:55

#	Modifying user name:	WinNT
#	Modification time:	15. 06. 2019 19:55

#	Program:	/corina/corina34_cracker 3.40 0067  02.08.2006

@<TRIPOS>MOLECULE
ASD01910427
  43   46    0    0    0
SMALL
NO_CHARGES


@<TRIPOS>ATOM
   1 C1             2.3465     0.0280     1.7884 C.ar    
   2 C2             2.3105    -1.2894     1.3602 C.ar    
   3 C3             3.2703    -1.7624     0.4798 C.ar    
   4 C4             4.2667    -0.9229     0.0263 C.ar    
   5 C5             4.3067     0.4026     0.4544 C.ar    
   6 C6             3.3391     0.8744     1.3395 C.ar    
   7 F7             1.3370    -2.1151     1.8027 F       
   8 C8             5.3767     1.3091    -0.0304 C.2     
   9 N9             5.5370     2.6106     0.2997 N.2     
  10 C10            6.5994     3.0109    -0.3532 C.2     
  11 O11            7.0505     1.9637    -1.0508 O.3     
  12 N12            6.3448     0.9974    -0.8526 N.2     
  13 C13            7.2001     4.3927    -0.3240 C.3     
  14 C14            8.6379     4.3138     0.1945 C.3     
  15 C15            9.2379     5.7203     0.2557 C.3     
  16 C16            9.2642     6.3216    -1.1531 C.3     
  17 N17            7.9080     6.2680    -1.7156 N.am    
  18 C18            7.2034     4.9789    -1.7393 C.3     
  19 C19            7.3213     7.3802    -2.2006 C.2     
  20 C20            7.9886     8.6869    -2.0594 C.2     
  21 O21            6.2414     7.3057    -2.7548 O.2     
  22 C22            8.1336     9.7554    -3.0599 C.2     
  23 N23            8.7950    10.7005    -2.4601 N.2     
  24 O24            9.0695    10.4150    -1.3204 O.3     
  25 C25            8.6234     9.2097    -0.9592 C.2     
  26 C26            7.6241     9.7548    -4.4782 C.3     
  27 H27            1.5939     0.3938     2.4712 H       
  28 H28            3.2386    -2.7899     0.1486 H       
  29 H29            5.0148    -1.2926    -0.6593 H       
  30 H30            3.3663     1.9011     1.6734 H       
  31 H31            6.6108     5.0318     0.3337 H       
  32 H32            8.6406     3.8741     1.1919 H       
  33 H33            9.2325     3.6942    -0.4768 H       
  34 H34            8.6295     6.3473     0.9075 H       
  35 H35           10.2537     5.6658     0.6470 H       
  36 H36            9.5979     7.3580    -1.1019 H       
  37 H37            9.9439     5.7474    -1.7828 H       
  38 H38            7.7150     4.2953    -2.4168 H       
  39 H39            6.1773     5.1294    -2.0748 H       
  40 H40            8.7445     8.7366     0.0041 H       
  41 H41            6.6173    10.1718    -4.5027 H       
  42 H42            8.2830    10.3595    -5.1013 H       
  43 H43            7.6033     8.7327    -4.8564 H       
@<TRIPOS>BOND
   1    1    2 ar
   2    1    6 ar
   3    1   27 1
   4    2    3 ar
   5    2    7 1
   6    3    4 ar
   7    3   28 1
   8    4    5 ar
   9    4   29 1
  10    5    6 ar
  11    5    8 1
  12    6   30 1
  13    8    9 1
  14    8   12 2
  15    9   10 2
  16   10   11 1
  17   10   13 1
  18   11   12 1
  19   13   14 1
  20   13   18 1
  21   13   31 1
  22   14   15 1
  23   14   32 1
  24   14   33 1
  25   15   16 1
  26   15   34 1
  27   15   35 1
  28   16   17 1
  29   16   36 1
  30   16   37 1
  31   17   18 1
  32   17   19 am
  33   18   38 1
  34   18   39 1
  35   19   20 1
  36   19   21 2
  37   20   22 1
  38   20   25 2
  39   22   23 2
  40   22   26 1
  41   23   24 1
  42   24   25 1
  43   25   40 1
  44   26   41 1
  45   26   42 1
  46   26   43 1

#	End of record

