#	Name: ASD01916243
#	Creating user name:	WinNT
#	Creation time:	15. 06. 2019 20:07

#	Modifying user name:	WinNT
#	Modification time:	15. 06. 2019 20:07

#	Program:	/corina/corina34_cracker 3.40 0067  02.08.2006

@<TRIPOS>MOLECULE
ASD01916243
  28   30    0    0    0
SMALL
NO_CHARGES


@<TRIPOS>ATOM
   1 C1             0.0977     1.3424     0.5028 C.2     
   2 N2             0.1209    -0.0009     0.5172 N.am    
   3 C3             1.2078    -0.6749     0.0129 C.2     
   4 C4             2.3250     0.1001    -0.5327 C.2     
   5 C5             2.2394     1.4444    -0.5170 C.2     
   6 N6             1.1212     2.0552     0.0024 N.am    
   7 N7             0.9870    -1.9658     0.1424 N.2     
   8 C8            -0.2094    -2.1550     0.7151 C.2     
   9 C9            -0.7667    -0.9523     0.9574 C.2     
  10 O10           -0.8723     1.9255     0.9474 O.2     
  11 C11            1.0483     3.4545     0.0106 C.ar    
  12 C12            1.5298     4.1692     1.0994 C.ar    
  13 C13            1.4571     5.5500     1.1050 C.ar    
  14 C14            0.9036     6.2199     0.0237 C.ar    
  15 C15            0.4237     5.5076    -1.0614 C.ar    
  16 C16            0.4997     4.1281    -1.0723 C.ar    
  17 F17            0.8326     7.5690     0.0302 F       
  18 F18            1.9248     6.2468     2.1639 F       
  19 C19           -0.8293    -3.4909     1.0344 C.3     
  20 Cl20          -0.3469    -3.9954     2.6968 Cl      
  21 H21            3.1959    -0.3941    -0.9372 H       
  22 H22            3.0475     2.0422    -0.9120 H       
  23 H23           -1.7294    -0.7706     1.4119 H       
  24 H24            1.9603     3.6471     1.9411 H       
  25 H25           -0.0072     6.0308    -1.9023 H       
  26 H26            0.1289     3.5735    -1.9217 H       
  27 H27           -1.9149    -3.4101     0.9799 H       
  28 H28           -0.4837    -4.2331     0.3148 H       
@<TRIPOS>BOND
   1    1    2 am
   2    1    6 am
   3    1   10 2
   4    2    3 1
   5    2    9 1
   6    3    4 1
   7    3    7 2
   8    4    5 2
   9    4   21 1
  10    5    6 1
  11    5   22 1
  12    6   11 1
  13    7    8 1
  14    8    9 2
  15    8   19 1
  16    9   23 1
  17   11   12 ar
  18   11   16 ar
  19   12   13 ar
  20   12   24 1
  21   13   14 ar
  22   13   18 1
  23   14   15 ar
  24   14   17 1
  25   15   16 ar
  26   15   25 1
  27   16   26 1
  28   19   20 1
  29   19   27 1
  30   19   28 1

#	End of record

