#	Name: ASD05940048
#	Creating user name:	WinNT
#	Creation time:	15. 06. 2019 21:04

#	Modifying user name:	WinNT
#	Modification time:	15. 06. 2019 21:04

#	Program:	/corina/corina34_cracker 3.40 0067  02.08.2006

@<TRIPOS>MOLECULE
ASD05940048
  63   66    0    0    0
SMALL
NO_CHARGES


@<TRIPOS>ATOM
   1 N1            -0.0061     1.3298    -0.0084 N.ar    
   2 C2             0.0072     0.0076    -0.0156 C.ar    
   3 N3             1.1346    -0.6854    -0.0216 N.ar    
   4 C4             2.3116    -0.0647    -0.0210 C.ar    
   5 C5             2.3372     1.3291    -0.0176 C.ar    
   6 C6             1.1320     2.0244    -0.0094 C.ar    
   7 N7             3.4936    -0.7851    -0.0182 N.3     
   8 C8             4.5416    -0.1284    -0.8058 C.3     
   9 C9             4.6745     1.3152    -0.3948 C.2     
  10 N10            3.5698     2.0038    -0.0267 N.am    
  11 N11            1.1148     3.4126    -0.0031 N.pl3   
  12 O12           -1.1723    -0.6598    -0.0165 O.3     
  13 C13            3.2722    -2.1617    -0.4807 C.3     
  14 O14            5.7612     1.8546    -0.3945 O.2     
  15 C15           -2.3639     0.1290    -0.0094 C.3     
  16 C16           -3.5854    -0.7924    -0.0115 C.3     
  17 C17           -4.8612     0.0521    -0.0040 C.3     
  18 C18           -6.0827    -0.8693    -0.0061 C.3     
  19 C19            4.6010    -2.8351    -0.7081 C.ar    
  20 C20            4.7773    -3.6654    -1.7992 C.ar    
  21 C21            5.9963    -4.2832    -2.0078 C.ar    
  22 C22            7.0390    -4.0702    -1.1256 C.ar    
  23 C23            6.8630    -3.2392    -0.0351 C.ar    
  24 C24            5.6454    -2.6180     0.1711 C.ar    
  25 C25            8.3675    -4.7444    -1.3525 C.3     
  26 N26            9.2187    -3.8821    -2.1832 N.3     
  27 C27            2.4833    -2.9348     0.5781 C.3     
  28 C28           10.6013    -4.3923    -2.2305 C.3     
  29 C29           10.9575    -4.6103    -3.7161 C.3     
  30 C30            9.9624    -3.6771    -4.4547 C.3     
  31 C31            8.7001    -3.7988    -3.5651 C.3     
  32 H32            5.4903    -0.6394    -0.6417 H       
  33 H33            4.2843    -0.1804    -1.8637 H       
  34 H34            3.6270     2.9391     0.2242 H       
  35 H35            1.9488     3.9080    -0.0045 H       
  36 H36            0.2689     3.8872     0.0026 H       
  37 H37            2.7087    -2.1454    -1.4136 H       
  38 H38           -2.3812     0.7531     0.8840 H       
  39 H39           -2.3854     0.7628    -0.8959 H       
  40 H40           -3.5681    -1.4166    -0.9050 H       
  41 H41           -3.5639    -1.4262     0.8750 H       
  42 H42           -4.8785     0.6763     0.8895 H       
  43 H43           -4.8826     0.6859    -0.8905 H       
  44 H44           -6.0612    -1.5031     0.8804 H       
  45 H45           -6.9916    -0.2677    -0.0007 H       
  46 H46           -6.0654    -1.4935    -0.8995 H       
  47 H47            3.9627    -3.8318    -2.4884 H       
  48 H48            6.1338    -4.9324    -2.8598 H       
  49 H49            7.6776    -3.0731     0.6543 H       
  50 H50            5.5078    -1.9687     1.0231 H       
  51 H51            8.8544    -4.9200    -0.3932 H       
  52 H52            8.2100    -5.6964    -1.8596 H       
  53 H53            1.5607    -2.4008     0.8057 H       
  54 H54            2.2440    -3.9284     0.1993 H       
  55 H55            3.0832    -3.0259     1.4836 H       
  56 H56           11.2809    -3.6632    -1.7893 H       
  57 H57           10.6665    -5.3372    -1.6910 H       
  58 H58           11.9866    -4.3102    -3.9137 H       
  59 H59           10.7963    -5.6496    -4.0025 H       
  60 H60           10.3296    -2.6510    -4.4731 H       
  61 H61            9.7649    -4.0376    -5.4642 H       
  62 H62            8.1441    -4.7019    -3.8169 H       
  63 H63            8.0680    -2.9184    -3.6808 H       
@<TRIPOS>BOND
   1    1    2 ar
   2    1    6 ar
   3    2    3 ar
   4    2   12 1
   5    3    4 ar
   6    4    5 ar
   7    4    7 1
   8    5    6 ar
   9    5   10 1
  10    6   11 1
  11    7    8 1
  12    7   13 1
  13    8    9 1
  14    8   32 1
  15    8   33 1
  16    9   10 am
  17    9   14 2
  18   10   34 1
  19   11   35 1
  20   11   36 1
  21   12   15 1
  22   13   19 1
  23   13   27 1
  24   13   37 1
  25   15   16 1
  26   15   38 1
  27   15   39 1
  28   16   17 1
  29   16   40 1
  30   16   41 1
  31   17   18 1
  32   17   42 1
  33   17   43 1
  34   18   44 1
  35   18   45 1
  36   18   46 1
  37   19   20 ar
  38   19   24 ar
  39   20   21 ar
  40   20   47 1
  41   21   22 ar
  42   21   48 1
  43   22   23 ar
  44   22   25 1
  45   23   24 ar
  46   23   49 1
  47   24   50 1
  48   25   26 1
  49   25   51 1
  50   25   52 1
  51   26   28 1
  52   26   31 1
  53   27   53 1
  54   27   54 1
  55   27   55 1
  56   28   29 1
  57   28   56 1
  58   28   57 1
  59   29   30 1
  60   29   58 1
  61   29   59 1
  62   30   31 1
  63   30   60 1
  64   30   61 1
  65   31   62 1
  66   31   63 1

#	End of record

