#	Name: ASD09740045
#	Creating user name:	WinNT
#	Creation time:	15. 06. 2019 21:22

#	Modifying user name:	WinNT
#	Modification time:	15. 06. 2019 21:22

#	Program:	/corina/corina34_cracker 3.40 0067  02.08.2006

@<TRIPOS>MOLECULE
ASD09740045
  47   50    0    0    0
SMALL
NO_CHARGES


@<TRIPOS>ATOM
   1 N1            -0.0133     1.2084    -0.0500 N.2     
   2 O2             0.0028    -0.0042    -0.0381 O.3     
   3 C3             1.2072     1.6801    -0.0004 C.2     
   4 N4             2.0458     0.6232     0.0463 N.2     
   5 C5             1.2695    -0.4445     0.0219 C.2     
   6 C6             1.7104    -1.8536     0.0548 C.ar    
   7 C7             1.5962     3.1102     0.0031 C.ar    
   8 C8             3.0715    -2.1597     0.1182 C.ar    
   9 C9             0.7667    -2.8830     0.0284 C.ar    
  10 C10            1.1843    -4.2000     0.0593 C.ar    
  11 C11            2.5442    -4.4985     0.1168 C.ar    
  12 C12            3.4815    -3.4755     0.1484 C.ar    
  13 O13            2.9532    -5.7938     0.1476 O.3     
  14 O14            0.2680    -5.2046     0.0342 O.3     
  15 C15            2.5502     3.5894     0.9322 C.ar    
  16 C16            2.9059     4.9603     0.9154 C.ar    
  17 C17            2.3068     5.8196    -0.0221 C.ar    
  18 C18            1.3918     5.3334    -0.9058 C.ar    
  19 C19            1.0350     3.9892    -0.9053 C.ar    
  20 C20            4.3617    -6.0282     0.2062 C.3     
  21 C21            4.6273    -7.5347     0.2337 C.3     
  22 C22           -1.1086    -4.8258    -0.0243 C.3     
  23 C23           -1.9827    -6.0815    -0.0451 C.3     
  24 C24            3.1484     2.7334     1.8678 C.ar    
  25 C25            4.0627     3.2292     2.7477 C.ar    
  26 C26            4.4133     4.5770     2.7328 C.ar    
  27 C27            3.8532     5.4366     1.8377 C.ar    
  28 H28            3.8029    -1.3655     0.1433 H       
  29 H29           -0.2870    -2.6502    -0.0158 H       
  30 H30            4.5346    -3.7108     0.1929 H       
  31 H31            2.5722     6.8663    -0.0414 H       
  32 H32            0.9379     6.0026    -1.6217 H       
  33 H33            0.3068     3.6294    -1.6171 H       
  34 H34            4.8396    -5.5909    -0.6704 H       
  35 H35            4.7688    -5.5709     1.1081 H       
  36 H36            4.1493    -7.9719     1.1104 H       
  37 H37            4.2201    -7.9919    -0.6681 H       
  38 H38            5.7016    -7.7135     0.2785 H       
  39 H39           -1.3575    -4.2244     0.8500 H       
  40 H40           -1.2872    -4.2439    -0.9285 H       
  41 H41           -3.0327    -5.7925    -0.0897 H       
  42 H42           -1.7339    -6.6829    -0.9194 H       
  43 H43           -1.8041    -6.6634     0.8591 H       
  44 H44            2.8853     1.6862     1.8910 H       
  45 H45            4.5219     2.5676     3.4674 H       
  46 H46            5.1402     4.9457     3.4414 H       
  47 H47            4.1346     6.4793     1.8373 H       
@<TRIPOS>BOND
   1    1    2 1
   2    1    3 2
   3    2    5 1
   4    3    4 1
   5    3    7 1
   6    4    5 2
   7    5    6 1
   8    6    8 ar
   9    6    9 ar
  10    7   15 ar
  11    7   19 ar
  12    8   12 ar
  13    8   28 1
  14    9   10 ar
  15    9   29 1
  16   10   11 ar
  17   10   14 1
  18   11   12 ar
  19   11   13 1
  20   12   30 1
  21   13   20 1
  22   14   22 1
  23   15   16 ar
  24   15   24 ar
  25   16   17 ar
  26   16   27 ar
  27   17   18 ar
  28   17   31 1
  29   18   19 ar
  30   18   32 1
  31   19   33 1
  32   20   21 1
  33   20   34 1
  34   20   35 1
  35   21   36 1
  36   21   37 1
  37   21   38 1
  38   22   23 1
  39   22   39 1
  40   22   40 1
  41   23   41 1
  42   23   42 1
  43   23   43 1
  44   24   25 ar
  45   24   44 1
  46   25   26 ar
  47   25   45 1
  48   26   27 ar
  49   26   46 1
  50   27   47 1

#	End of record

