#	Name: ASD06170376
#	Creating user name:	WinNT
#	Creation time:	15. 06. 2019 21:05

#	Modifying user name:	WinNT
#	Modification time:	15. 06. 2019 21:05

#	Program:	/corina/corina34_cracker 3.40 0067  02.08.2006

@<TRIPOS>MOLECULE
ASD06170376
  72   76    0    0    0
SMALL
NO_CHARGES


@<TRIPOS>ATOM
   1 N1             1.2682     2.0297     1.7394 N.am    
   2 N2             1.5455     0.7636     2.2634 N.pl3   
   3 C3             2.7607     0.3534     1.8531 C.2     
   4 C4             3.3084     1.3369     1.0528 C.2     
   5 C5             2.3187     2.4241     0.9903 C.2     
   6 C6             4.6198     1.3042     0.3942 C.2     
   7 O7             5.3450     0.3364     0.5302 O.2     
   8 N8             5.0208     2.3459    -0.3611 N.am    
   9 C9             6.3295     2.3878    -0.8580 C.ar    
  10 C10            7.0429     1.2098    -1.0363 C.ar    
  11 C11            8.9169     2.4707    -1.8404 C.ar    
  12 C12            8.2026     3.6477    -1.6679 C.ar    
  13 C13            6.9123     3.6069    -1.1780 C.ar    
  14 O14           10.1875     2.5114    -2.3223 O.3     
  15 C15           12.0331    -1.0721    -3.2507 C.ar    
  16 C16           11.0535    -0.5395    -4.1053 C.ar    
  17 C17           10.4375     0.6619    -3.7900 C.ar    
  18 C18           10.7907     1.3331    -2.6320 C.ar    
  19 C19           11.7606     0.8078    -1.7838 C.ar    
  20 C20           12.3799    -0.3839    -2.0857 C.ar    
  21 O21            2.4263     3.4725     0.3819 O.2     
  22 C22            0.0957     2.7622     1.9514 C.ar    
  23 C23           -0.4545     2.8421     3.2242 C.ar    
  24 C24           -1.6121     3.5666     3.4302 C.ar    
  25 C25            8.3331     1.2518    -1.5262 C.ar    
  26 C26            3.4133    -0.9580     2.2075 C.3     
  27 C27            0.6474    -0.0030     3.1306 C.3     
  28 C28           -2.2233     4.2121     2.3710 C.ar    
  29 C29           -1.6783     4.1342     1.1024 C.ar    
  30 C30           -0.5178     3.4161     0.8907 C.ar    
  31 C31           -0.0928    -1.0520     2.2983 C.3     
  32 C32           -1.1201    -1.7683     3.1772 C.3     
  33 C33           -0.8084    -0.3662     1.1328 C.3     
  34 O34            0.8439    -2.0033     1.7887 O.3     
  35 N35           10.9322    -1.4331    -5.1557 N.pl3   
  36 C36           11.8104    -2.4530    -4.9235 C.2     
  37 N37           12.4587    -2.2372    -3.8081 N.2     
  38 N38           11.9913    -3.5503    -5.7491 N.am    
  39 C39           11.2695    -3.6682    -6.8811 C.2     
  40 O40           11.4453    -4.7348    -7.6836 O.3     
  41 O41           10.4602    -2.8119    -7.1775 O.2     
  42 C42           10.6338    -4.7959    -8.8861 C.3     
  43 H43            4.4029     3.0666    -0.5606 H       
  44 H44            6.5887     0.2610    -0.7915 H       
  45 H45            8.6560     4.5958    -1.9164 H       
  46 H46            6.3562     4.5231    -1.0442 H       
  47 H47            9.6844     1.0730    -4.4460 H       
  48 H48           12.0295     1.3388    -0.8826 H       
  49 H49           13.1317    -0.7863    -1.4228 H       
  50 H50            0.0222     2.3378     4.0518 H       
  51 H51           -2.0406     3.6288     4.4196 H       
  52 H52            8.8882     0.3357    -1.6645 H       
  53 H53            3.1443    -1.7099     1.4656 H       
  54 H54            4.4960    -0.8328     2.2218 H       
  55 H55            3.0717    -1.2797     3.1913 H       
  56 H56            1.2288    -0.4997     3.9074 H       
  57 H57           -0.0748     0.6705     3.5919 H       
  58 H58           -3.1285     4.7781     2.5347 H       
  59 H59           -2.1583     4.6393     0.2772 H       
  60 H60           -0.0926     3.3556    -0.1002 H       
  61 H61           -1.8346    -1.0427     3.5659 H       
  62 H62           -1.6474    -2.5156     2.5842 H       
  63 H63           -0.6103    -2.2569     4.0075 H       
  64 H64           -0.0765     0.1441     0.5067 H       
  65 H65           -1.3357    -1.1135     0.5399 H       
  66 H66           -1.5229     0.3594     1.5215 H       
  67 H67            0.4437    -2.6997     1.2501 H       
  68 H68           10.3345    -1.3504    -5.9152 H       
  69 H69           12.6374    -4.2340    -5.5125 H       
  70 H70            9.5788    -4.8061    -8.6124 H       
  71 H71           10.8394    -3.9245    -9.5079 H       
  72 H72           10.8740    -5.7029    -9.4408 H       
@<TRIPOS>BOND
   1    1    2 1
   2    1    5 am
   3    1   22 1
   4    2    3 1
   5    2   27 1
   6    3    4 2
   7    3   26 1
   8    4    5 1
   9    4    6 1
  10    5   21 2
  11    6    7 2
  12    6    8 am
  13    8    9 1
  14    8   43 1
  15    9   10 ar
  16    9   13 ar
  17   10   25 ar
  18   10   44 1
  19   11   12 ar
  20   11   14 1
  21   11   25 ar
  22   12   13 ar
  23   12   45 1
  24   13   46 1
  25   14   18 1
  26   15   16 ar
  27   15   20 ar
  28   15   37 1
  29   16   17 ar
  30   16   35 1
  31   17   18 ar
  32   17   47 1
  33   18   19 ar
  34   19   20 ar
  35   19   48 1
  36   20   49 1
  37   22   23 ar
  38   22   30 ar
  39   23   24 ar
  40   23   50 1
  41   24   28 ar
  42   24   51 1
  43   25   52 1
  44   26   53 1
  45   26   54 1
  46   26   55 1
  47   27   31 1
  48   27   56 1
  49   27   57 1
  50   28   29 ar
  51   28   58 1
  52   29   30 ar
  53   29   59 1
  54   30   60 1
  55   31   32 1
  56   31   33 1
  57   31   34 1
  58   32   61 1
  59   32   62 1
  60   32   63 1
  61   33   64 1
  62   33   65 1
  63   33   66 1
  64   34   67 1
  65   35   36 1
  66   35   68 1
  67   36   37 2
  68   36   38 1
  69   38   39 am
  70   38   69 1
  71   39   40 1
  72   39   41 2
  73   40   42 1
  74   42   70 1
  75   42   71 1
  76   42   72 1

#	End of record

