#	Name: ASD03090734
#	Creating user name:	WinNT
#	Creation time:	15. 06. 2019 20:29

#	Modifying user name:	WinNT
#	Modification time:	15. 06. 2019 20:29

#	Program:	/corina/corina34_cracker 3.40 0067  02.08.2006

@<TRIPOS>MOLECULE
ASD03090734
  41   42    0    0    0
SMALL
NO_CHARGES


@<TRIPOS>ATOM
   1 N1            -0.0162     1.3436     0.0094 N.am    
   2 C2             0.0188     0.1475     0.6297 C.2     
   3 O3             1.0721    -0.2859     1.0555 O.2     
   4 N4            -1.1136    -0.5681     0.7781 N.am    
   5 O5            -1.7396    -3.6100     2.2165 O.3     
   6 N6            -2.0868    -2.6078     1.6359 N.2     
   7 C7            -1.0773    -1.8058     1.4200 C.2     
   8 C8             0.0640    -2.4482     1.9696 C.2     
   9 C9            -0.4228    -3.6068     2.4692 C.2     
  10 C10            0.3618    -4.6843     3.1724 C.3     
  11 C11            0.3824    -4.4016     4.6759 C.3     
  12 C12            1.1456     2.1270    -0.0704 C.ar    
  13 C13            1.0461     3.5106    -0.1988 C.ar    
  14 C14            2.1942     4.2809    -0.2769 C.ar    
  15 C15            3.4405     3.6738    -0.2271 C.ar    
  16 C16            3.5377     2.2962    -0.0998 C.ar    
  17 C17            2.3934     1.5252    -0.0159 C.ar    
  18 C18            4.8930     1.6394    -0.0470 C.3     
  19 O19            4.5679     4.4300    -0.3038 O.3     
  20 C20            4.3941     5.8423    -0.4344 C.3     
  21 O21           -0.1765     4.1038    -0.2478 O.3     
  22 C22           -0.2025     5.5264    -0.3802 C.3     
  23 H23           -0.8434     1.6611    -0.3853 H       
  24 H24           -1.9538    -0.2223     0.4384 H       
  25 H25            1.0840    -2.0934     1.9853 H       
  26 H26           -0.1064    -5.6518     2.9910 H       
  27 H27            1.3829    -4.6977     2.7912 H       
  28 H28            0.9498    -5.1809     5.1844 H       
  29 H29            0.8506    -3.4341     4.8572 H       
  30 H30           -0.6387    -4.3882     5.0570 H       
  31 H31            2.1194     5.3536    -0.3768 H       
  32 H32            2.4715     0.4531     0.0878 H       
  33 H33            5.2259     1.5761     0.9890 H       
  34 H34            4.8275     0.6368    -0.4695 H       
  35 H35            5.6057     2.2303    -0.6222 H       
  36 H36            5.3699     6.3254    -0.4848 H       
  37 H37            3.8350     6.0569    -1.3452 H       
  38 H38            3.8447     6.2220     0.4271 H       
  39 H39            0.3091     5.9797     0.4688 H       
  40 H40            0.3001     5.8146    -1.3035 H       
  41 H41           -1.2366     5.8700    -0.4070 H       
@<TRIPOS>BOND
   1    1    2 am
   2    1   12 1
   3    1   23 1
   4    2    3 2
   5    2    4 am
   6    4    7 1
   7    4   24 1
   8    5    6 1
   9    5    9 1
  10    6    7 2
  11    7    8 1
  12    8    9 2
  13    8   25 1
  14    9   10 1
  15   10   11 1
  16   10   26 1
  17   10   27 1
  18   11   28 1
  19   11   29 1
  20   11   30 1
  21   12   13 ar
  22   12   17 ar
  23   13   14 ar
  24   13   21 1
  25   14   15 ar
  26   14   31 1
  27   15   16 ar
  28   15   19 1
  29   16   17 ar
  30   16   18 1
  31   17   32 1
  32   18   33 1
  33   18   34 1
  34   18   35 1
  35   19   20 1
  36   20   36 1
  37   20   37 1
  38   20   38 1
  39   21   22 1
  40   22   39 1
  41   22   40 1
  42   22   41 1

#	End of record

