#	Name: ASD03330270
#	Creating user name:	WinNT
#	Creation time:	15. 06. 2019 20:36

#	Modifying user name:	WinNT
#	Modification time:	15. 06. 2019 20:36

#	Program:	/corina/corina34_cracker 3.40 0067  02.08.2006

@<TRIPOS>MOLECULE
ASD03330270
  59   61    0    0    0
SMALL
NO_CHARGES


@<TRIPOS>ATOM
   1 C1             0.1550     1.0662     0.2384 C.3     
   2 N2            -0.1311    -0.3726     0.3283 N.3     
   3 C3             0.3500    -1.0866    -0.8682 C.3     
   4 C4             1.7800    -0.6778    -1.1111 C.2     
   5 N5             2.3625     0.4061    -0.5346 N.pl3   
   6 C6             1.6630     1.3062     0.3866 C.3     
   7 C7             2.7146    -1.2653    -1.8993 C.2     
   8 N8             3.8527    -0.5415    -1.7954 N.2     
   9 C9             3.6467     0.4645    -0.9751 C.2     
  10 C10            4.6450     1.4883    -0.5953 C.ar    
  11 C11            5.8183     1.6315    -1.3364 C.ar    
  12 C12            2.5245    -2.4741    -2.7205 C.2     
  13 O13            1.4476    -3.0393    -2.7304 O.2     
  14 C14            3.3548    -4.1548    -4.2770 C.3     
  15 N15            3.5439    -2.9531    -3.4606 N.am    
  16 C16            6.7451     2.5884    -0.9774 C.ar    
  17 C17            6.5129     3.4050     0.1150 C.ar    
  18 C18            5.3514     3.2680     0.8540 C.ar    
  19 C19            4.4143     2.3184     0.5020 C.ar    
  20 C20            4.6563    -4.4821    -5.0118 C.3     
  21 C21            5.7698    -4.7285    -3.9918 C.3     
  22 C22            4.4589    -5.7370    -5.8644 C.3     
  23 C23            5.0418    -3.3080    -5.9140 C.3     
  24 C24           -1.5644    -0.6119     0.5433 C.3     
  25 C25           -2.3546    -0.0897    -0.6583 C.3     
  26 C26           -3.6953    -0.8219    -0.7442 C.3     
  27 C27           -2.6027     1.4109    -0.4923 C.3     
  28 H28           -0.1785     1.4423    -0.7287 H       
  29 H29           -0.3753     1.5914     1.0328 H       
  30 H30            0.2977    -2.1625    -0.7012 H       
  31 H31           -0.2617    -0.8167    -1.7291 H       
  32 H32            1.8968     2.3413     0.1379 H       
  33 H33            1.9700     1.0952     1.4110 H       
  34 H34            6.0008     0.9944    -2.1892 H       
  35 H35            3.0802    -4.9912    -3.6343 H       
  36 H36            2.5616    -3.9793    -5.0037 H       
  37 H37            4.4027    -2.5023    -3.4527 H       
  38 H38            7.6539     2.7000    -1.5501 H       
  39 H39            7.2416     4.1523     0.3923 H       
  40 H40            5.1759     3.9084     1.7057 H       
  41 H41            3.5080     2.2123     1.0797 H       
  42 H42            5.4952    -5.5649    -3.3491 H       
  43 H43            6.6970    -4.9616    -4.5152 H       
  44 H44            5.9104    -3.8344    -3.3843 H       
  45 H45            3.6657    -5.5615    -6.5911 H       
  46 H46            5.3861    -5.9702    -6.3879 H       
  47 H47            4.1843    -6.5735    -5.2217 H       
  48 H48            5.1824    -2.4140    -5.3065 H       
  49 H49            5.9690    -3.5412    -6.4374 H       
  50 H50            4.2486    -3.1325    -6.6406 H       
  51 H51           -1.7411    -1.6814     0.6573 H       
  52 H52           -1.8883    -0.0920     1.4449 H       
  53 H53           -1.7856    -0.2651    -1.5713 H       
  54 H54           -4.2643    -0.6465     0.1688 H       
  55 H55           -4.2582    -0.4498    -1.6003 H       
  56 H56           -3.5185    -1.8909    -0.8625 H       
  57 H57           -3.2770     1.7565    -1.2759 H       
  58 H58           -3.0520     1.5992     0.4828 H       
  59 H59           -1.6560     1.9460    -0.5655 H       
@<TRIPOS>BOND
   1    1    2 1
   2    1    6 1
   3    1   28 1
   4    1   29 1
   5    2    3 1
   6    2   24 1
   7    3    4 1
   8    3   30 1
   9    3   31 1
  10    4    5 1
  11    4    7 2
  12    5    6 1
  13    5    9 1
  14    6   32 1
  15    6   33 1
  16    7    8 1
  17    7   12 1
  18    8    9 2
  19    9   10 1
  20   10   11 ar
  21   10   19 ar
  22   11   16 ar
  23   11   34 1
  24   12   13 2
  25   12   15 am
  26   14   15 1
  27   14   20 1
  28   14   35 1
  29   14   36 1
  30   15   37 1
  31   16   17 ar
  32   16   38 1
  33   17   18 ar
  34   17   39 1
  35   18   19 ar
  36   18   40 1
  37   19   41 1
  38   20   21 1
  39   20   22 1
  40   20   23 1
  41   21   42 1
  42   21   43 1
  43   21   44 1
  44   22   45 1
  45   22   46 1
  46   22   47 1
  47   23   48 1
  48   23   49 1
  49   23   50 1
  50   24   25 1
  51   24   51 1
  52   24   52 1
  53   25   26 1
  54   25   27 1
  55   25   53 1
  56   26   54 1
  57   26   55 1
  58   26   56 1
  59   27   57 1
  60   27   58 1
  61   27   59 1

#	End of record

