#	Name: ASD01150844
#	Creating user name:	WinNT
#	Creation time:	15. 06. 2019 19:05

#	Modifying user name:	WinNT
#	Modification time:	15. 06. 2019 19:05

#	Program:	/corina/corina34_cracker 3.40 0067  02.08.2006

@<TRIPOS>MOLECULE
ASD01150844
  54   56    0    0    0
SMALL
NO_CHARGES


@<TRIPOS>ATOM
   1 C1            -0.0157     1.3034     0.0092 C.2     
   2 N2             0.0021    -0.0041     0.0020 N.2     
   3 C3             1.2661    -0.4425    -0.0124 C.2     
   4 C4             2.0927     0.6726    -0.0143 C.2     
   5 N5             1.2463     1.7739    -0.0003 N.pl3   
   6 C6             3.5077     0.6849    -0.0273 C.2     
   7 O7             4.1253    -0.3638    -0.0389 O.2     
   8 O8             4.1724     1.8596    -0.0269 O.3     
   9 C9             1.6328     3.1212     0.0025 C.ar    
  10 C10            2.3229     3.6441     1.0880 C.ar    
  11 C11            2.7028     4.9719     1.0889 C.ar    
  12 C12            2.3959     5.7816     0.0082 C.ar    
  13 C13            1.7077     5.2619    -1.0753 C.ar    
  14 C14            1.3311     3.9332    -1.0825 C.ar    
  15 F15            2.7680     7.0803     0.0112 F       
  16 C16           -1.2592     2.1545     0.0200 C.3     
  17 C17           -1.6726     2.4352     1.4661 C.3     
  18 N18            1.6762    -1.7709    -0.0235 N.am    
  19 C19            0.7598    -2.7592    -0.0205 C.2     
  20 C20            1.1954    -4.1700    -0.0323 C.ar    
  21 C21            0.2474    -5.1975    -0.0292 C.ar    
  22 C22            0.6619    -6.5142    -0.0407 C.ar    
  23 C23            2.0130    -6.8172    -0.0548 C.ar    
  24 C24            2.9567    -5.8030    -0.0578 C.ar    
  25 C25            2.5560    -4.4837    -0.0523 C.ar    
  26 O26           -0.4254    -2.4890    -0.0082 O.2     
  27 Cl27           2.5266    -8.4755    -0.0680 Cl      
  28 Cl28          -1.4466    -4.8185    -0.0105 Cl      
  29 C29            5.6000     1.7972    -0.0405 C.3     
  30 C30            6.0664     1.0613    -1.2982 C.3     
  31 C31            6.1725     3.2160    -0.0379 C.3     
  32 C32            6.0895     1.0474     1.2001 C.3     
  33 H33            2.5621     3.0130     1.9311 H       
  34 H34            3.2393     5.3791     1.9332 H       
  35 H35            1.4693     5.8949    -1.9172 H       
  36 H36            0.7983     3.5271    -1.9297 H       
  37 H37           -1.0591     3.0968    -0.4901 H       
  38 H38           -2.0644     1.6279    -0.4924 H       
  39 H39           -1.8728     1.4930     1.9762 H       
  40 H40           -0.8675     2.9619     1.9784 H       
  41 H41           -2.5721     3.0508     1.4739 H       
  42 H42            2.6219    -1.9865    -0.0333 H       
  43 H43           -0.0689    -7.3094    -0.0384 H       
  44 H44            4.0088    -6.0463    -0.0688 H       
  45 H45            3.2932    -3.6944    -0.0588 H       
  46 H46            5.7176     1.5955    -2.1821 H       
  47 H47            7.1553     1.0138    -1.3086 H       
  48 H48            5.6585     0.0505    -1.3001 H       
  49 H49            5.8403     3.7402     0.8581 H       
  50 H50            7.2614     3.1684    -0.0482 H       
  51 H51            5.8238     3.7502    -0.9217 H       
  52 H52            5.6816     0.0366     1.1982 H       
  53 H53            7.1784     0.9998     1.1897 H       
  54 H54            5.7573     1.5716     2.0961 H       
@<TRIPOS>BOND
   1    1    2 2
   2    1    5 1
   3    1   16 1
   4    2    3 1
   5    3    4 2
   6    3   18 1
   7    4    5 1
   8    4    6 1
   9    5    9 1
  10    6    7 2
  11    6    8 1
  12    8   29 1
  13    9   10 ar
  14    9   14 ar
  15   10   11 ar
  16   10   33 1
  17   11   12 ar
  18   11   34 1
  19   12   13 ar
  20   12   15 1
  21   13   14 ar
  22   13   35 1
  23   14   36 1
  24   16   17 1
  25   16   37 1
  26   16   38 1
  27   17   39 1
  28   17   40 1
  29   17   41 1
  30   18   19 am
  31   18   42 1
  32   19   20 1
  33   19   26 2
  34   20   21 ar
  35   20   25 ar
  36   21   22 ar
  37   21   28 1
  38   22   23 ar
  39   22   43 1
  40   23   24 ar
  41   23   27 1
  42   24   25 ar
  43   24   44 1
  44   25   45 1
  45   29   30 1
  46   29   32 1
  47   29   31 1
  48   30   46 1
  49   30   47 1
  50   30   48 1
  51   31   49 1
  52   31   50 1
  53   31   51 1
  54   32   52 1
  55   32   53 1
  56   32   54 1

#	End of record

