#	Name: ASD07930113
#	Creating user name:	WinNT
#	Creation time:	15. 06. 2019 21:11

#	Modifying user name:	WinNT
#	Modification time:	15. 06. 2019 21:11

#	Program:	/corina/corina34_cracker 3.40 0067  02.08.2006

@<TRIPOS>MOLECULE
ASD07930113
  50   53    0    0    0
SMALL
NO_CHARGES


@<TRIPOS>ATOM
   1 C1            -0.0180     1.4750     0.0102 C.2     
   2 C2             0.0021    -0.0041     0.0020 C.2     
   3 N3             1.1818     2.1506     0.0023 N.am    
   4 N4             1.1187    -0.6403     0.4298 N.am    
   5 C5             2.2488     0.1646     0.9152 C.3     
   6 C6             2.4262     1.3693    -0.0209 C.3     
   7 C7            -1.2113     2.1517     0.0195 C.2     
   8 C8            -1.2361     3.5499     0.0292 C.2     
   9 C9            -0.0415     4.2488     0.0303 C.2     
  10 C10            1.2177     3.4943     0.0143 C.2     
  11 O11           -0.9640    -0.6357    -0.3804 O.2     
  12 O12            2.2862     4.0810     0.0118 O.2     
  13 N13           -0.3092     7.8202    -0.5503 N.pl3   
  14 N14            0.2874     7.7979     0.7159 N.2     
  15 C15            0.4550     6.5536     1.0758 C.2     
  16 C16           -0.0338     5.7292     0.0410 C.2     
  17 C17           -0.4996     6.5477    -0.9504 C.2     
  18 C18           -0.6703     9.0211    -1.3078 C.3     
  19 C19            1.1984    -2.1030     0.4094 C.3     
  20 C20            1.7656    -2.5642    -0.9346 C.3     
  21 O21            3.1145    -2.1102    -1.0634 O.3     
  22 C22            3.7690    -2.4375    -2.2088 C.ar    
  23 C23            5.0812    -2.0292    -2.3999 C.ar    
  24 C24            5.7448    -2.3631    -3.5643 C.ar    
  25 C25            5.1017    -3.1044    -4.5400 C.ar    
  26 C26            3.7932    -3.5121    -4.3515 C.ar    
  27 C27            3.1279    -3.1849    -3.1856 C.ar    
  28 C28            5.7817    -1.2215    -1.3379 C.3     
  29 F29            7.0849    -0.9317    -1.7562 F       
  30 F30            5.0844    -0.0277    -1.1240 F       
  31 F31            5.8263    -1.9552    -0.1476 F       
  32 Cl32           5.9378    -3.5228    -6.0027 Cl      
  33 H33            2.0419     0.5140     1.9267 H       
  34 H34            3.1565    -0.4388     0.9115 H       
  35 H35            2.6241     1.0219    -1.0349 H       
  36 H36            3.2550     1.9864     0.3260 H       
  37 H37           -2.1397     1.5998     0.0191 H       
  38 H38           -2.1777     4.0788     0.0354 H       
  39 H39            0.8917     6.2150     2.0037 H       
  40 H40           -0.9405     6.2317    -1.8843 H       
  41 H41            0.1697     9.3219    -1.9339 H       
  42 H42           -1.5343     8.8076    -1.9370 H       
  43 H43           -0.9148     9.8271    -0.6160 H       
  44 H44            1.8500    -2.4425     1.2146 H       
  45 H45            0.2021    -2.5231     0.5467 H       
  46 H46            1.7423    -3.6528    -0.9845 H       
  47 H47            1.1642    -2.1504    -1.7440 H       
  48 H48            6.7660    -2.0451    -3.7136 H       
  49 H49            3.2928    -4.0902    -5.1143 H       
  50 H50            2.1080    -3.5074    -3.0367 H       
@<TRIPOS>BOND
   1    1    2 1
   2    1    3 1
   3    1    7 2
   4    2    4 am
   5    2   11 2
   6    3    6 1
   7    3   10 am
   8    4    5 1
   9    4   19 1
  10    5    6 1
  11    5   33 1
  12    5   34 1
  13    6   35 1
  14    6   36 1
  15    7    8 1
  16    7   37 1
  17    8    9 2
  18    8   38 1
  19    9   10 1
  20    9   16 1
  21   10   12 2
  22   13   14 1
  23   13   17 1
  24   13   18 1
  25   14   15 2
  26   15   16 1
  27   15   39 1
  28   16   17 2
  29   17   40 1
  30   18   41 1
  31   18   42 1
  32   18   43 1
  33   19   20 1
  34   19   44 1
  35   19   45 1
  36   20   21 1
  37   20   46 1
  38   20   47 1
  39   21   22 1
  40   22   23 ar
  41   22   27 ar
  42   23   24 ar
  43   23   28 1
  44   24   25 ar
  45   24   48 1
  46   25   26 ar
  47   25   32 1
  48   26   27 ar
  49   26   49 1
  50   27   50 1
  51   28   29 1
  52   28   30 1
  53   28   31 1

#	End of record

