#	Name: ASD00842056
#	Creating user name:	WinNT
#	Creation time:	15. 06. 2019 18:43

#	Modifying user name:	WinNT
#	Modification time:	15. 06. 2019 18:43

#	Program:	/corina/corina34_cracker 3.40 0067  02.08.2006

@<TRIPOS>MOLECULE
ASD00842056
  95  100    0    0    0
SMALL
NO_CHARGES


@<TRIPOS>ATOM
   1 F1             6.1245    -1.8050    -1.9327 F       
   2 C2             1.0619     1.5480    -0.5420 C.ar    
   3 C3             1.3501     0.2043    -0.7301 C.ar    
   4 C4             1.2590    -0.6783     0.3367 C.ar    
   5 C5             0.8817    -0.2171     1.5828 C.ar    
   6 C6             0.5945     1.1229     1.7676 C.ar    
   7 C7             0.6849     2.0044     0.7065 C.ar    
   8 C8             1.5710    -2.1389     0.1358 C.3     
   9 C9             1.2748    -2.9227     1.3966 C.2     
  10 C10            0.7728    -2.6988    -1.0433 C.3     
  11 C11           -0.6940    -2.4254    -0.8321 C.2     
  12 N12           -1.6023    -2.9135    -1.6999 N.am    
  13 O13           -1.0571    -1.7660     0.1189 O.2     
  14 C14           -3.0267    -2.5686    -1.5754 C.3     
  15 C15           -3.5271    -2.0689    -2.9349 C.3     
  16 N16           -3.2180    -3.0696    -3.9649 N.3     
  17 C17           -1.7680    -3.2569    -4.1078 C.3     
  18 C18           -1.1947    -3.8005    -2.8000 C.3     
  19 C19           -3.8314    -2.7090    -5.2501 C.3     
  20 C20           -3.3871    -3.7037    -6.3261 C.3     
  21 C21           -4.0767    -3.3594    -7.6482 C.3     
  22 N22           -5.5333    -3.4195    -7.4721 N.3     
  23 C23           -5.9888    -2.4398    -6.4776 C.3     
  24 C24           -5.3563    -2.7567    -5.1205 C.3     
  25 C25           -6.2267    -3.2304    -8.7533 C.3     
  26 O26            0.1950    -3.0364     1.9372 O.2     
  27 N27            2.4327    -3.4695     1.8039 N.am    
  28 C28            3.0533    -2.3387    -0.0820 C.ar    
  29 C29            3.4959    -3.1462     0.9582 C.ar    
  30 C30            3.9258    -1.8897    -1.0475 C.ar    
  31 C31            5.2645    -2.2436    -0.9876 C.ar    
  32 C32            5.7176    -3.0486     0.0451 C.ar    
  33 C33            4.8424    -3.4989     1.0135 C.ar    
  34 Cl34           7.3940    -3.4932     0.1219 Cl      
  35 C35            2.3086    -6.0842     2.6538 C.ar    
  36 C36            1.0639    -6.4698     2.1772 C.ar    
  37 C37            3.3359    -7.0054     2.7311 C.ar    
  38 C38            3.1265    -8.3120     2.3340 C.ar    
  39 C39            1.8832    -8.7026     1.8566 C.ar    
  40 C40            0.8511    -7.7806     1.7785 C.ar    
  41 O41            1.6777    -9.9881     1.4666 O.3     
  42 O42            0.0540    -5.5636     2.1018 O.3     
  43 C43            2.7858   -10.8839     1.5749 C.3     
  44 C44           -1.2006    -6.0304     1.6015 C.3     
  45 C45           -2.2061    -4.8774     1.5904 C.3     
  46 S46            2.5819    -4.4169     3.1539 S.o2    
  47 O47            3.9433    -4.3356     3.5527 O.2     
  48 O48            1.4999    -4.0717     4.0079 O.2     
  49 O49            1.7207    -0.2471    -1.9572 O.3     
  50 C50            2.2301     0.0372    -4.3024 C.3     
  51 C51            1.6841     0.6932    -3.0326 C.3     
  52 H52            1.1364     2.2377    -1.3697 H       
  53 H53            0.8107    -0.9037     2.4134 H       
  54 H54            0.2989     1.4814     2.7425 H       
  55 H55            0.4600     3.0504     0.8533 H       
  56 H56            1.1026    -2.2200    -1.9653 H       
  57 H57            0.9354    -3.7743    -1.1141 H       
  58 H58           -3.5927    -3.4517    -1.2790 H       
  59 H59           -3.1496    -1.7839    -0.8290 H       
  60 H60           -4.6050    -1.9132    -2.8909 H       
  61 H61           -3.0332    -1.1289    -3.1811 H       
  62 H62           -1.5702    -3.9629    -4.9144 H       
  63 H63           -1.2986    -2.3005    -4.3377 H       
  64 H64           -0.1070    -3.8328    -2.8625 H       
  65 H65           -1.5837    -4.8023    -2.6181 H       
  66 H66           -3.5201    -1.7034    -5.5329 H       
  67 H67           -2.3062    -3.6438    -6.4531 H       
  68 H68           -3.6631    -4.7140    -6.0240 H       
  69 H69           -3.7893    -2.3542    -7.9567 H       
  70 H70           -3.7735    -4.0744    -8.4130 H       
  71 H71           -5.6925    -1.4389    -6.7915 H       
  72 H72           -7.0745    -2.4869    -6.3921 H       
  73 H73           -5.6633    -3.7520    -4.7995 H       
  74 H74           -5.6823    -2.0201    -4.3862 H       
  75 H75           -5.9260    -4.0143    -9.4483 H       
  76 H76           -7.3039    -3.2794    -8.5941 H       
  77 H77           -5.9647    -2.2570    -9.1680 H       
  78 H78            3.5677    -1.2627    -1.8506 H       
  79 H79            5.2025    -4.1261     1.8156 H       
  80 H80            4.3041    -6.7033     3.1023 H       
  81 H81            3.9311    -9.0299     2.3947 H       
  82 H82           -0.1172    -8.0828     1.4076 H       
  83 H83            3.1063   -10.9412     2.6152 H       
  84 H84            2.4871   -11.8744     1.2317 H       
  85 H85            3.6091   -10.5195     0.9606 H       
  86 H86           -1.0695    -6.4081     0.5875 H       
  87 H87           -1.5721    -6.8304     2.2419 H       
  88 H88           -3.1631    -5.2335     1.2088 H       
  89 H89           -2.3372    -4.4998     2.6045 H       
  90 H90           -1.8346    -4.0774     0.9500 H       
  91 H91            2.2841     0.7784    -5.0999 H       
  92 H92            3.2264    -0.3594    -4.1070 H       
  93 H93            1.5688    -0.7746    -4.6052 H       
  94 H94            0.6556     1.0119    -3.2017 H       
  95 H95            2.2958     1.5591    -2.7791 H       
@<TRIPOS>BOND
   1    1   31 1
   2    2    3 ar
   3    2    7 ar
   4    2   52 1
   5    3    4 ar
   6    3   49 1
   7    4    5 ar
   8    4    8 1
   9    5    6 ar
  10    5   53 1
  11    6    7 ar
  12    6   54 1
  13    7   55 1
  14    8    9 1
  15    8   10 1
  16    8   28 1
  17    9   26 2
  18    9   27 am
  19   10   11 1
  20   10   56 1
  21   10   57 1
  22   11   12 am
  23   11   13 2
  24   12   14 1
  25   12   18 1
  26   14   15 1
  27   14   58 1
  28   14   59 1
  29   15   16 1
  30   15   60 1
  31   15   61 1
  32   16   17 1
  33   16   19 1
  34   17   18 1
  35   17   62 1
  36   17   63 1
  37   18   64 1
  38   18   65 1
  39   19   20 1
  40   19   24 1
  41   19   66 1
  42   20   21 1
  43   20   67 1
  44   20   68 1
  45   21   22 1
  46   21   69 1
  47   21   70 1
  48   22   23 1
  49   22   25 1
  50   23   24 1
  51   23   71 1
  52   23   72 1
  53   24   73 1
  54   24   74 1
  55   25   75 1
  56   25   76 1
  57   25   77 1
  58   27   46 am
  59   27   29 1
  60   28   29 ar
  61   28   30 ar
  62   29   33 ar
  63   30   31 ar
  64   30   78 1
  65   31   32 ar
  66   32   33 ar
  67   32   34 1
  68   33   79 1
  69   35   36 ar
  70   35   37 ar
  71   35   46 1
  72   36   42 1
  73   36   40 ar
  74   37   38 ar
  75   37   80 1
  76   38   39 ar
  77   38   81 1
  78   39   40 ar
  79   39   41 1
  80   40   82 1
  81   41   43 1
  82   42   44 1
  83   43   83 1
  84   43   84 1
  85   43   85 1
  86   44   45 1
  87   44   86 1
  88   44   87 1
  89   45   88 1
  90   45   89 1
  91   45   90 1
  92   46   47 2
  93   46   48 2
  94   49   51 1
  95   50   51 1
  96   50   91 1
  97   50   92 1
  98   50   93 1
  99   51   94 1
 100   51   95 1

#	End of record

