#	Name: ASD04910471
#	Creating user name:	WinNT
#	Creation time:	15. 06. 2019 20:55

#	Modifying user name:	WinNT
#	Modification time:	15. 06. 2019 20:55

#	Program:	/corina/corina34_cracker 3.40 0067  02.08.2006

@<TRIPOS>MOLECULE
ASD04910471
  67   70    0    0    0
SMALL
NO_CHARGES


@<TRIPOS>ATOM
   1 C1             0.8232     1.0212     0.3717 C.2     
   2 C2             0.5785    -0.4338     0.2985 C.ar    
   3 C3             1.6519    -1.3268     0.3079 C.ar    
   4 C4             1.4162    -2.6842     0.2398 C.ar    
   5 C5             0.1198    -3.1615     0.1619 C.ar    
   6 C6            -0.9485    -2.2822     0.1517 C.ar    
   7 C7            -0.7274    -0.9225     0.2255 C.ar    
   8 O8             1.9601     1.4432     0.4402 O.2     
   9 O9            -0.2144     1.8803     0.3568 O.3     
  10 C10           -0.1298    -4.6458     0.0873 C.3     
  11 C11           -0.5239    -5.1669     1.4708 C.3     
  12 C12           -0.9078    -6.6559     1.4818 C.3     
  13 C13           -0.1495    -6.7607     2.8156 C.3     
  14 C14            0.6780    -5.5511     2.3497 C.3     
  15 C15           -1.0204    -6.4725     4.0401 C.3     
  16 C16            0.6690    -8.0457     2.9559 C.3     
  17 O17           -1.1872    -4.9051    -0.8384 O.3     
  18 C18           -0.8488    -4.9975    -2.1517 C.ar    
  19 C19           -1.8054    -5.3552    -3.0908 C.ar    
  20 C20           -1.4624    -5.4487    -4.4249 C.ar    
  21 C21           -0.1599    -5.1848    -4.8267 C.ar    
  22 C22            0.7970    -4.8268    -3.8866 C.ar    
  23 C23            0.4517    -4.7285    -2.5534 C.ar    
  24 N24            0.1893    -5.2801    -6.1821 N.pl3   
  25 N25           -0.0711    -6.3675    -7.0260 N.2     
  26 C26            0.4039    -6.0871    -8.2131 C.2     
  27 C27            0.9813    -4.8139    -8.1641 C.2     
  28 C28            0.8314    -4.3364    -6.9066 C.2     
  29 C29            1.6470    -4.0977    -9.3108 C.3     
  30 F30            1.6031    -4.9043   -10.4530 F       
  31 F31            0.9763    -2.8960    -9.5625 F       
  32 F32            2.9797    -3.8278    -8.9815 F       
  33 C33            2.2109    -4.5402    -4.3220 C.3     
  34 C34           -2.5014    -5.8378    -5.4447 C.3     
  35 C35            0.1006     3.2957     0.4318 C.3     
  36 C36           -1.1951     4.1088     0.4023 C.3     
  37 H37            2.6643    -0.9555     0.3680 H       
  38 H38            2.2455    -3.3760     0.2470 H       
  39 H39           -1.9578    -2.6613     0.0900 H       
  40 H40           -1.5623    -0.2375     0.2224 H       
  41 H41            0.7770    -5.1504    -0.2462 H       
  42 H42           -1.2475    -4.5257     1.9742 H       
  43 H43           -1.9799    -6.8298     1.5743 H       
  44 H44           -0.4530    -7.2301     0.6747 H       
  45 H45            1.5664    -5.8232     1.7798 H       
  46 H46            0.8862    -4.8330     3.1429 H       
  47 H47           -1.8432    -7.1865     4.0768 H       
  48 H48           -0.4183    -6.5651     4.9440 H       
  49 H49           -1.4200    -5.4607     3.9717 H       
  50 H50            1.4084    -8.0947     2.1566 H       
  51 H51            1.1761    -8.0499     3.9208 H       
  52 H52            0.0055    -8.9080     2.8904 H       
  53 H53           -2.8185    -5.5609    -2.7781 H       
  54 H54            1.1949    -4.4457    -1.8226 H       
  55 H55            0.3581    -6.7285    -9.0808 H       
  56 H56            1.1670    -3.3753    -6.5459 H       
  57 H57            2.2872    -3.5031    -4.6488 H       
  58 H58            2.8898    -4.7085    -3.4860 H       
  59 H59            2.4785    -5.2014    -5.1462 H       
  60 H60           -2.9272    -4.9389    -5.8907 H       
  61 H61           -2.0378    -6.4446    -6.2225 H       
  62 H62           -3.2908    -6.4111    -4.9587 H       
  63 H63            0.6368     3.5001     1.3585 H       
  64 H64            0.7240     3.5747    -0.4177 H       
  65 H65           -0.9587     5.1714     0.4586 H       
  66 H66           -1.7313     3.9045    -0.5244 H       
  67 H67           -1.8185     3.8299     1.2518 H       
@<TRIPOS>BOND
   1    1    2 1
   2    1    8 2
   3    1    9 1
   4    2    3 ar
   5    2    7 ar
   6    3    4 ar
   7    3   37 1
   8    4    5 ar
   9    4   38 1
  10    5    6 ar
  11    5   10 1
  12    6    7 ar
  13    6   39 1
  14    7   40 1
  15    9   35 1
  16   10   11 1
  17   10   17 1
  18   10   41 1
  19   11   12 1
  20   11   14 1
  21   11   42 1
  22   12   13 1
  23   12   43 1
  24   12   44 1
  25   13   14 1
  26   13   15 1
  27   13   16 1
  28   14   45 1
  29   14   46 1
  30   15   47 1
  31   15   48 1
  32   15   49 1
  33   16   50 1
  34   16   51 1
  35   16   52 1
  36   17   18 1
  37   18   19 ar
  38   18   23 ar
  39   19   20 ar
  40   19   53 1
  41   20   21 ar
  42   20   34 1
  43   21   22 ar
  44   21   24 1
  45   22   23 ar
  46   22   33 1
  47   23   54 1
  48   24   25 1
  49   24   28 1
  50   25   26 2
  51   26   27 1
  52   26   55 1
  53   27   28 2
  54   27   29 1
  55   28   56 1
  56   29   30 1
  57   29   31 1
  58   29   32 1
  59   33   57 1
  60   33   58 1
  61   33   59 1
  62   34   60 1
  63   34   61 1
  64   34   62 1
  65   35   36 1
  66   35   63 1
  67   35   64 1
  68   36   65 1
  69   36   66 1
  70   36   67 1

#	End of record

