#	Name: ASD07930503
#	Creating user name:	WinNT
#	Creation time:	15. 06. 2019 21:12

#	Modifying user name:	WinNT
#	Modification time:	15. 06. 2019 21:12

#	Program:	/corina/corina34_cracker 3.40 0067  02.08.2006

@<TRIPOS>MOLECULE
ASD07930503
  56   59    0    0    0
SMALL
NO_CHARGES


@<TRIPOS>ATOM
   1 C1            -0.0719     1.4806     0.0693 C.3     
   2 N2             0.7746    -0.3583    -2.1244 N.2     
   3 N3            -0.8922    -1.7575    -1.2728 N.pl3   
   4 C4            -0.9015    -2.8118    -0.2533 C.3     
   5 C5            -1.2208    -2.1911     1.1137 C.3     
   6 S6             0.0004    -0.8824     1.4460 S.o2    
   7 N7            -0.0341     0.0164     0.0433 N.am    
   8 C8            -0.0256    -0.6906    -1.1507 C.2     
   9 C9             0.4719    -3.4841    -0.2010 C.3     
  10 C10           -1.9515    -3.8363    -0.5984 C.ar    
  11 C11           -2.7877    -3.6306    -1.6779 C.ar    
  12 C12           -3.7552    -4.5751    -1.9955 C.ar    
  13 C13           -3.8795    -5.7244    -1.2264 C.ar    
  14 C14           -3.0410    -5.9262    -0.1474 C.ar    
  15 C15           -2.0734    -4.9861     0.1640 C.ar    
  16 O16           -0.4717     0.0047     2.4507 O.2     
  17 O17            1.3150    -1.4198     1.4940 O.2     
  18 F18           -1.2540    -5.1856     1.2195 F       
  19 N19           -4.6039    -4.3684    -3.0888 N.am    
  20 C20           -5.0149    -5.4161    -3.8304 C.2     
  21 O21           -4.5705    -6.5264    -3.6127 O.2     
  22 C22           -6.0066    -5.2149    -4.9089 C.ar    
  23 N23           -6.4877    -3.9986    -5.1409 N.ar    
  24 C24           -6.4226    -6.3029    -5.6755 C.ar    
  25 C25           -7.3508    -6.1023    -6.6817 C.ar    
  26 C26           -7.8352    -4.8141    -6.8898 C.ar    
  27 C27           -7.3696    -3.7746    -6.0883 C.ar    
  28 O28           -8.7467    -4.5728    -7.8661 O.3     
  29 C29           -9.2624    -5.7065    -8.5667 C.3     
  30 C30          -10.6463    -5.4665    -9.1928 C.3     
  31 C31          -10.1457    -6.2602   -10.4111 C.3     
  32 C32           -8.7239    -5.8417   -10.0008 C.3     
  33 H33            0.9459     1.8705     0.0677 H       
  34 H34           -0.6024     1.8461    -0.8099 H       
  35 H35           -0.5875     1.8148     0.9697 H       
  36 H36            1.3776     0.3945    -2.0212 H       
  37 H37           -1.4913    -1.8121    -2.0337 H       
  38 H38           -2.2230    -1.7629     1.0978 H       
  39 H39           -1.1596    -2.9559     1.8879 H       
  40 H40            1.2300    -2.7426     0.0507 H       
  41 H41            0.4642    -4.2675     0.5569 H       
  42 H42            0.6997    -3.9212    -1.1731 H       
  43 H43           -2.6896    -2.7357    -2.2746 H       
  44 H44           -4.6314    -6.4600    -1.4715 H       
  45 H45           -3.1373    -6.8201     0.4510 H       
  46 H46           -4.8964    -3.4711    -3.3129 H       
  47 H47           -6.0252    -7.2892    -5.4865 H       
  48 H48           -7.6912    -6.9260    -7.2917 H       
  49 H49           -7.7418    -2.7728    -6.2445 H       
  50 H50           -9.1993    -6.6272    -7.9866 H       
  51 H51          -11.4590    -5.9563    -8.6566 H       
  52 H52          -10.8518    -4.4181    -9.4091 H       
  53 H53          -10.3237    -7.3330   -10.3365 H       
  54 H54          -10.4654    -5.8425   -11.3658 H       
  55 H55           -8.4039    -4.8959   -10.4380 H       
  56 H56           -7.9848    -6.6344   -10.1168 H       
@<TRIPOS>BOND
   1    1    7 1
   2    1   33 1
   3    1   34 1
   4    1   35 1
   5    2    8 2
   6    2   36 1
   7    3    4 1
   8    3    8 1
   9    3   37 1
  10    4    5 1
  11    4    9 1
  12    4   10 1
  13    5    6 1
  14    5   38 1
  15    5   39 1
  16    6    7 am
  17    6   16 2
  18    6   17 2
  19    7    8 1
  20    9   40 1
  21    9   41 1
  22    9   42 1
  23   10   11 ar
  24   10   15 ar
  25   11   12 ar
  26   11   43 1
  27   12   13 ar
  28   12   19 1
  29   13   14 ar
  30   13   44 1
  31   14   15 ar
  32   14   45 1
  33   15   18 1
  34   19   20 am
  35   19   46 1
  36   20   21 2
  37   20   22 1
  38   22   23 ar
  39   22   24 ar
  40   23   27 ar
  41   24   25 ar
  42   24   47 1
  43   25   26 ar
  44   25   48 1
  45   26   27 ar
  46   26   28 1
  47   27   49 1
  48   28   29 1
  49   29   30 1
  50   29   32 1
  51   29   50 1
  52   30   31 1
  53   30   51 1
  54   30   52 1
  55   31   32 1
  56   31   53 1
  57   31   54 1
  58   32   55 1
  59   32   56 1

#	End of record

