#	Name: ASD03082095
#	Creating user name:	WinNT
#	Creation time:	15. 06. 2019 20:27

#	Modifying user name:	WinNT
#	Modification time:	15. 06. 2019 20:27

#	Program:	/corina/corina34_cracker 3.40 0067  02.08.2006

@<TRIPOS>MOLECULE
ASD03082095
  63   66    0    0    0
SMALL
NO_CHARGES


@<TRIPOS>ATOM
   1 C1            -0.0173     1.4248     0.0099 C.3     
   2 O2             0.0021    -0.0041     0.0020 O.3     
   3 C3            -1.2953    -0.6030     0.0112 C.3     
   4 C4            -1.1560    -2.1035     0.0018 C.ar    
   5 C5             0.0971    -2.6813    -0.0133 C.ar    
   6 C6             0.2265    -4.0586    -0.0214 C.ar    
   7 C7            -0.8978    -4.8640    -0.0150 C.ar    
   8 C8            -2.1562    -4.2966    -0.0004 C.ar    
   9 C9            -2.2923    -2.9102     0.0141 C.ar    
  10 C10            1.4181     1.9544    -0.0010 C.3     
  11 C11            2.0963     1.5661    -1.3177 C.3     
  12 C12            3.5111     2.1508    -1.3458 C.3     
  13 C13            3.4335     3.6699    -1.1777 C.3     
  14 N14            2.7776     3.9897     0.0966 N.3     
  15 C15            1.4011     3.4792     0.1282 C.3     
  16 C16            2.8090     5.4352     0.3567 C.3     
  17 C17            1.9537     6.1595    -0.6848 C.3     
  18 C18            1.9865     7.6650    -0.4139 C.3     
  19 C19            1.1440     8.3784    -1.4397 C.ar    
  20 C20           -0.1993     8.5984    -1.1988 C.ar    
  21 C21           -0.9722     9.2528    -2.1398 C.ar    
  22 C22           -0.4016     9.6875    -3.3214 C.ar    
  23 C23            0.9419     9.4683    -3.5619 C.ar    
  24 C24            1.7157     8.8178    -2.6191 C.ar    
  25 C25           -3.6424    -2.2946     0.0304 C.ar    
  26 C26           -4.6070    -2.7004    -0.8896 C.ar    
  27 C27           -5.8611    -2.1244    -0.8700 C.ar    
  28 C28           -6.1611    -1.1460     0.0606 C.ar    
  29 C29           -5.2072    -0.7391     0.9759 C.ar    
  30 C30           -3.9519    -1.3127     0.9693 C.ar    
  31 H31           -0.5445     1.7859    -0.8732 H       
  32 H32           -0.5275     1.7763     0.9067 H       
  33 H33           -1.8320    -0.2936     0.9080 H       
  34 H34           -1.8490    -0.2840    -0.8718 H       
  35 H35            0.9785    -2.0571    -0.0191 H       
  36 H36            1.2091    -4.5067    -0.0332 H       
  37 H37           -0.7911    -5.9387    -0.0218 H       
  38 H38           -3.0335    -4.9264     0.0039 H       
  39 H39            1.9711     1.5240     0.8339 H       
  40 H40            2.1494     0.4800    -1.3937 H       
  41 H41            1.5214     1.9630    -2.1544 H       
  42 H42            4.0975     1.7241    -0.5320 H       
  43 H43            3.9840     1.9138    -2.2989 H       
  44 H44            4.4402     4.0878    -1.1829 H       
  45 H45            2.8587     4.0973    -1.9993 H       
  46 H46            0.8358     3.9075    -0.6996 H       
  47 H47            0.9316     3.7586     1.0714 H       
  48 H48            2.4140     5.6338     1.3530 H       
  49 H49            3.8368     5.7931     0.2953 H       
  50 H50            2.3487     5.9609    -1.6811 H       
  51 H51            0.9260     5.8016    -0.6234 H       
  52 H52            1.5914     7.8635     0.5824 H       
  53 H53            3.0142     8.0229    -0.4752 H       
  54 H54           -0.6451     8.2588    -0.2756 H       
  55 H55           -2.0218     9.4241    -1.9519 H       
  56 H56           -1.0055    10.1981    -4.0569 H       
  57 H57            1.3876     9.8076    -4.4853 H       
  58 H58            2.7654     8.6465    -2.8069 H       
  59 H59           -4.3736    -3.4640    -1.6168 H       
  60 H60           -6.6094    -2.4379    -1.5828 H       
  61 H61           -7.1437    -0.6980     0.0724 H       
  62 H62           -5.4466     0.0257     1.6999 H       
  63 H63           -3.2078    -0.9943     1.6844 H       
@<TRIPOS>BOND
   1    1    2 1
   2    1   10 1
   3    1   31 1
   4    1   32 1
   5    2    3 1
   6    3    4 1
   7    3   33 1
   8    3   34 1
   9    4    5 ar
  10    4    9 ar
  11    5    6 ar
  12    5   35 1
  13    6    7 ar
  14    6   36 1
  15    7    8 ar
  16    7   37 1
  17    8    9 ar
  18    8   38 1
  19    9   25 1
  20   10   11 1
  21   10   15 1
  22   10   39 1
  23   11   12 1
  24   11   40 1
  25   11   41 1
  26   12   13 1
  27   12   42 1
  28   12   43 1
  29   13   14 1
  30   13   44 1
  31   13   45 1
  32   14   15 1
  33   14   16 1
  34   15   46 1
  35   15   47 1
  36   16   17 1
  37   16   48 1
  38   16   49 1
  39   17   18 1
  40   17   50 1
  41   17   51 1
  42   18   19 1
  43   18   52 1
  44   18   53 1
  45   19   20 ar
  46   19   24 ar
  47   20   21 ar
  48   20   54 1
  49   21   22 ar
  50   21   55 1
  51   22   23 ar
  52   22   56 1
  53   23   24 ar
  54   23   57 1
  55   24   58 1
  56   25   26 ar
  57   25   30 ar
  58   26   27 ar
  59   26   59 1
  60   27   28 ar
  61   27   60 1
  62   28   29 ar
  63   28   61 1
  64   29   30 ar
  65   29   62 1
  66   30   63 1

#	End of record

