#	Name: ASD01420453
#	Creating user name:	WinNT
#	Creation time:	15. 06. 2019 19:20

#	Modifying user name:	WinNT
#	Modification time:	15. 06. 2019 19:20

#	Program:	/corina/corina34_cracker 3.40 0067  02.08.2006

@<TRIPOS>MOLECULE
ASD01420453
  46   49    0    0    0
SMALL
NO_CHARGES


@<TRIPOS>ATOM
   1 C1            -0.0168     1.3904     0.0097 C.ar    
   2 C2             0.0021    -0.0041     0.0020 C.ar    
   3 C3             1.2369    -0.6811    -0.0134 C.ar    
   4 C4             2.4269     0.0373    -0.0213 C.ar    
   5 C5             2.4047     1.4020    -0.0137 C.ar    
   6 C6             1.1854     2.0927     0.0020 C.ar    
   7 N7            -0.9722    -0.9479     0.0063 N.2     
   8 C8            -0.4279    -2.1401    -0.0054 C.2     
   9 N9             0.9371    -2.0269    -0.0178 N.pl3   
  10 C10           -1.1746    -3.4150    -0.0051 C.2     
  11 C11           -2.5817    -3.5542     0.0071 C.2     
  12 C12           -2.8660    -4.8795     0.0029 C.2     
  13 N13           -1.6886    -5.5581    -0.0114 N.pl3   
  14 N14           -0.6460    -4.6230    -0.0219 N.2     
  15 N15           -3.5172    -2.5069     0.0215 N.am    
  16 C16           -4.8366    -2.7818     0.0321 C.2     
  17 O17           -5.2171    -3.9372     0.0293 O.2     
  18 C18           -5.8177    -1.6834     0.0472 C.ar    
  19 C19           -6.2749    -1.1657     1.2657 C.ar    
  20 C20            1.1757     3.5680     0.0092 C.2     
  21 O21            2.3380     4.2495     0.0007 O.3     
  22 O22            0.1196     4.1685     0.0228 O.2     
  23 C23            2.2524     5.6989     0.0086 C.3     
  24 C24           -7.1936    -0.1364     1.2734 C.ar    
  25 C25           -7.6655     0.3862     0.0757 C.ar    
  26 C26           -7.2158    -0.1231    -1.1362 C.ar    
  27 C27           -6.2928    -1.1484    -1.1568 C.ar    
  28 F28           -5.8561    -1.6424    -2.3360 F       
  29 F29           -5.8176    -1.6734     2.4311 F       
  30 O30           -8.5698     1.3981     0.0896 O.3     
  31 C31           -9.0137     1.8890    -1.1769 C.3     
  32 H32           -0.9571     1.9217     0.0170 H       
  33 H33            3.3716    -0.4858    -0.0331 H       
  34 H34            3.3333     1.9534    -0.0196 H       
  35 H35            1.5746    -2.7580    -0.0281 H       
  36 H36           -3.8528    -5.3183     0.0100 H       
  37 H37           -1.5879    -6.5228    -0.0170 H       
  38 H38           -3.2138    -1.5856     0.0238 H       
  39 H39            1.7091     6.0356    -0.8743 H       
  40 H40            1.7271     6.0270     0.9055 H       
  41 H41            3.2569     6.1222     0.0005 H       
  42 H42           -7.5469     0.2636     2.2123 H       
  43 H43           -7.5865     0.2870    -2.0640 H       
  44 H44           -8.1600     2.2669    -1.7396 H       
  45 H45           -9.4871     1.0807    -1.7343 H       
  46 H46           -9.7324     2.6938    -1.0231 H       
@<TRIPOS>BOND
   1    1    2 ar
   2    1    6 ar
   3    1   32 1
   4    2    3 ar
   5    2    7 1
   6    3    4 ar
   7    3    9 1
   8    4    5 ar
   9    4   33 1
  10    5    6 ar
  11    5   34 1
  12    6   20 1
  13    7    8 2
  14    8    9 1
  15    8   10 1
  16    9   35 1
  17   10   11 1
  18   10   14 2
  19   11   12 2
  20   11   15 1
  21   12   13 1
  22   12   36 1
  23   13   14 1
  24   13   37 1
  25   15   16 am
  26   15   38 1
  27   16   18 1
  28   16   17 2
  29   18   19 ar
  30   18   27 ar
  31   19   24 ar
  32   19   29 1
  33   20   21 1
  34   20   22 2
  35   21   23 1
  36   23   39 1
  37   23   40 1
  38   23   41 1
  39   24   25 ar
  40   24   42 1
  41   25   26 ar
  42   25   30 1
  43   26   27 ar
  44   26   43 1
  45   27   28 1
  46   30   31 1
  47   31   44 1
  48   31   45 1
  49   31   46 1

#	End of record

