#	Name: ASD01510001
#	Creating user name:	WinNT
#	Creation time:	15. 06. 2019 19:21

#	Modifying user name:	WinNT
#	Modification time:	15. 06. 2019 19:21

#	Program:	/corina/corina34_cracker 3.40 0067  02.08.2006

@<TRIPOS>MOLECULE
ASD01510001
  51   54    0    0    0
SMALL
NO_CHARGES


@<TRIPOS>ATOM
   1 C1            -0.0187     1.5261     0.0104 C.3     
   2 C2             0.0021    -0.0041     0.0020 C.3     
   3 N3             0.7291    -0.4915     1.1811 N.3     
   4 C4             2.1260    -0.0390     1.1681 C.3     
   5 C5             2.1687     1.4902     1.2114 C.3     
   6 C6             1.4196     2.0513    -0.0005 C.3     
   7 C7             0.6549    -1.8764     1.2747 C.ar    
   8 C8             1.0796    -2.6719     0.2131 C.ar    
   9 N9             0.1846    -2.4444     2.3777 N.ar    
  10 C10            0.1161    -3.7620     2.4631 C.ar    
  11 C11            0.5339    -4.5479     1.4057 C.ar    
  12 N12            1.0079    -3.9861     0.3064 N.ar    
  13 C13            3.6019     1.9547     1.1763 C.2     
  14 N14            4.4564     1.5781     2.1481 N.am    
  15 O15            3.9863     2.6675     0.2736 O.2     
  16 C16            5.7732     2.0049     2.1158 C.2     
  17 N17            6.7232     1.6870     3.0429 N.pl3   
  18 C18            7.8994     2.3044     2.6538 C.ar    
  19 C19            7.6036     2.9945     1.4665 C.ar    
  20 N20            6.2932     2.7683     1.1889 N.2     
  21 C21            9.1814     2.3516     3.1810 C.ar    
  22 C22           10.1623     3.0767     2.5371 C.ar    
  23 C23            9.8755     3.7604     1.3645 C.ar    
  24 C24            8.6088     3.7243     0.8266 C.ar    
  25 C25            6.5332     0.8490     4.2295 C.3     
  26 C26            6.8258    -0.6104     3.8754 C.3     
  27 C27            6.6274    -1.4855     5.1146 C.3     
  28 H28           -0.5449     1.8878    -0.8730 H       
  29 H29           -0.5279     1.8782     0.9076 H       
  30 H30           -1.0203    -0.3813     0.0242 H       
  31 H31            0.4992    -0.3556    -0.9021 H       
  32 H32            2.6463    -0.4415     2.0373 H       
  33 H33            2.6132    -0.3903     0.2586 H       
  34 H34            1.6939     1.8417     2.1274 H       
  35 H35            1.9171     1.7318    -0.9162 H       
  36 H36            1.4102     3.1401     0.0492 H       
  37 H37            1.4666    -2.2137    -0.6850 H       
  38 H38           -0.2667    -4.2250     3.3606 H       
  39 H39            0.4772    -5.6239     1.4792 H       
  40 H40            4.1489     1.0079     2.8701 H       
  41 H41            9.4110     1.8222     4.0939 H       
  42 H42           11.1601     3.1127     2.9486 H       
  43 H43           10.6519     4.3249     0.8697 H       
  44 H44            8.3927     4.2587    -0.0868 H       
  45 H45            7.2126     1.1750     5.0171 H       
  46 H46            5.5041     0.9393     4.5770 H       
  47 H47            6.1465    -0.9364     3.0877 H       
  48 H48            7.8550    -0.7006     3.5278 H       
  49 H49            6.8358    -2.5252     4.8623 H       
  50 H50            7.3067    -1.1595     5.9022 H       
  51 H51            5.5982    -1.3953     5.4621 H       
@<TRIPOS>BOND
   1    1    2 1
   2    1    6 1
   3    1   28 1
   4    1   29 1
   5    2    3 1
   6    2   30 1
   7    2   31 1
   8    3    4 1
   9    3    7 1
  10    4    5 1
  11    4   32 1
  12    4   33 1
  13    5    6 1
  14    5   13 1
  15    5   34 1
  16    6   35 1
  17    6   36 1
  18    7    8 ar
  19    7    9 ar
  20    8   12 ar
  21    8   37 1
  22    9   10 ar
  23   10   11 ar
  24   10   38 1
  25   11   12 ar
  26   11   39 1
  27   13   14 am
  28   13   15 2
  29   14   16 1
  30   14   40 1
  31   16   17 1
  32   16   20 2
  33   17   18 1
  34   17   25 1
  35   18   19 ar
  36   18   21 ar
  37   19   20 1
  38   19   24 ar
  39   21   22 ar
  40   21   41 1
  41   22   23 ar
  42   22   42 1
  43   23   24 ar
  44   23   43 1
  45   24   44 1
  46   25   26 1
  47   25   45 1
  48   25   46 1
  49   26   27 1
  50   26   47 1
  51   26   48 1
  52   27   49 1
  53   27   50 1
  54   27   51 1

#	End of record

