#	Name: ASD01911430
#	Creating user name:	WinNT
#	Creation time:	15. 06. 2019 19:57

#	Modifying user name:	WinNT
#	Modification time:	15. 06. 2019 19:57

#	Program:	/corina/corina34_cracker 3.40 0067  02.08.2006

@<TRIPOS>MOLECULE
ASD01911430
  41   44    0    0    0
SMALL
NO_CHARGES


@<TRIPOS>ATOM
   1 C1             0.1702     1.3690     0.6637 C.ar    
   2 C2             0.1854    -0.0147     0.6529 C.ar    
   3 C3             1.2365    -0.6750     0.0218 C.ar    
   4 N4             2.2087     0.0091    -0.5604 N.ar    
   5 C5             2.2196     1.3290    -0.5653 C.ar    
   6 C6             1.2097     2.0479     0.0412 C.ar    
   7 Cl7           -1.0878    -0.9149     1.4159 Cl      
   8 N8             1.2653    -2.0652     0.0034 N.3     
   9 C9             2.6417    -2.5616    -0.1268 C.3     
  10 C10            0.4045    -2.5955    -1.0624 C.3     
  11 C11            0.3207    -4.1203    -0.9354 C.3     
  12 N12            1.6875    -4.6630    -0.9120 N.am    
  13 C13            2.6496    -4.0850     0.0385 C.3     
  14 C14            2.0487    -5.6638    -1.7393 C.2     
  15 O15            1.2172    -6.1958    -2.4490 O.2     
  16 N16            3.3316    -6.0748    -1.7799 N.am    
  17 C17            3.6827    -7.1747    -2.5452 C.2     
  18 S18            5.3124    -7.8182    -2.6895 S.3     
  19 C19            4.7330    -9.0795    -3.7749 C.ar    
  20 C20            3.3548    -8.9172    -3.9441 C.ar    
  21 N21            2.8606    -7.8743    -3.2475 N.2     
  22 C22            5.4056   -10.1144    -4.4204 C.ar    
  23 C23            4.7165   -10.9880    -5.2330 C.ar    
  24 C24            3.3477   -10.8376    -5.4094 C.ar    
  25 C25            2.6700    -9.8240    -4.7809 C.ar    
  26 Cl26           5.5594   -12.2756    -6.0363 Cl      
  27 H27           -0.6341     1.9087     1.1414 H       
  28 H28            3.0298     1.8533    -1.0501 H       
  29 H29            1.2273     3.1277     0.0315 H       
  30 H30            3.0310    -2.3005    -1.1108 H       
  31 H31            3.2660    -2.1089     0.6436 H       
  32 H32           -0.5937    -2.1674    -0.9705 H       
  33 H33            0.8250    -2.3339    -2.0334 H       
  34 H34           -0.1935    -4.3831    -0.0109 H       
  35 H35           -0.2212    -4.5295    -1.7881 H       
  36 H36            3.6474    -4.4708    -0.1702 H       
  37 H37            2.3593    -4.3443     1.0567 H       
  38 H38            4.0091    -5.6004    -1.2732 H       
  39 H39            6.4705   -10.2322    -4.2838 H       
  40 H40            2.8116   -11.5247    -6.0473 H       
  41 H41            1.6051    -9.7194    -4.9273 H       
@<TRIPOS>BOND
   1    1    2 ar
   2    1    6 ar
   3    1   27 1
   4    2    3 ar
   5    2    7 1
   6    3    4 ar
   7    3    8 1
   8    4    5 ar
   9    5    6 ar
  10    5   28 1
  11    6   29 1
  12    8    9 1
  13    8   10 1
  14    9   13 1
  15    9   30 1
  16    9   31 1
  17   10   11 1
  18   10   32 1
  19   10   33 1
  20   11   12 1
  21   11   34 1
  22   11   35 1
  23   12   13 1
  24   12   14 am
  25   13   36 1
  26   13   37 1
  27   14   15 2
  28   14   16 am
  29   16   17 1
  30   16   38 1
  31   17   18 1
  32   17   21 2
  33   18   19 1
  34   19   20 ar
  35   19   22 ar
  36   20   21 1
  37   20   25 ar
  38   22   23 ar
  39   22   39 1
  40   23   24 ar
  41   23   26 1
  42   24   25 ar
  43   24   40 1
  44   25   41 1

#	End of record

