#	Name: ASD01883350
#	Creating user name:	WinNT
#	Creation time:	15. 06. 2019 19:46

#	Modifying user name:	WinNT
#	Modification time:	15. 06. 2019 19:46

#	Program:	/corina/corina34_cracker 3.40 0067  02.08.2006

@<TRIPOS>MOLECULE
ASD01883350
  47   49    0    0    0
SMALL
NO_CHARGES


@<TRIPOS>ATOM
   1 N1            -0.0162     1.3418     0.0094 N.am    
   2 C2             0.0021    -0.0041     0.0020 C.2     
   3 C3            -1.2147    -0.7262     0.0102 C.2     
   4 C4            -2.4239    -0.0108     0.0261 C.2     
   5 C5            -2.3777     1.3956     0.0332 C.2     
   6 C6            -1.1861     2.0320     0.0299 C.2     
   7 O7             1.0658    -0.6002    -0.0122 O.2     
   8 C8            -1.2137    -2.1582     0.0021 C.1     
   9 N9            -1.2130    -3.2942    -0.0044 N.1     
  10 N10           -3.6309    -0.6732     0.0341 N.pl3   
  11 C11            1.2510     2.0769     0.0013 C.3     
  12 C12            1.6783     2.3406    -1.4440 C.3     
  13 C13            3.0017     3.1084    -1.4525 C.3     
  14 C14            3.4922     3.2633    -2.8934 C.3     
  15 C15            2.7927     4.4918    -0.8334 C.3     
  16 C16           -4.8833     0.0867     0.0506 C.3     
  17 C17           -6.0061    -0.3817    -0.8773 C.3     
  18 C18           -6.1196    -0.6016     0.6326 C.3     
  19 C19           -5.9557    -2.0094     1.1450 C.ar    
  20 C20           -6.2229    -2.2980     2.4702 C.ar    
  21 C21           -6.0726    -3.5893     2.9402 C.ar    
  22 C22           -5.6555    -4.5920     2.0849 C.ar    
  23 C23           -5.3892    -4.3035     0.7595 C.ar    
  24 C24           -5.5437    -3.0131     0.2884 C.ar    
  25 H25           -3.2946     1.9661     0.0450 H       
  26 H26           -1.1631     3.1117     0.0354 H       
  27 H27           -3.6520    -1.6429     0.0288 H       
  28 H28            1.1236     3.0263     0.5214 H       
  29 H29            2.0167     1.4867     0.5046 H       
  30 H30            1.8057     1.3912    -1.9642 H       
  31 H31            0.9126     2.9308    -1.9474 H       
  32 H32            3.7440     2.5594    -0.8731 H       
  33 H33            2.7499     3.8122    -3.4729 H       
  34 H34            4.4350     3.8102    -2.8995 H       
  35 H35            3.6411     2.2777    -3.3345 H       
  36 H36            2.0504     5.0408    -1.4128 H       
  37 H37            2.4433     4.3815     0.1932 H       
  38 H38            3.7355     5.0388    -0.8395 H       
  39 H39           -4.7802     1.1594     0.2143 H       
  40 H40           -6.6419     0.3828    -1.3237 H       
  41 H41           -5.8129    -1.2552    -1.5000 H       
  42 H42           -6.8301     0.0182     1.1795 H       
  43 H43           -6.5488    -1.5146     3.1384 H       
  44 H44           -6.2806    -3.8147     3.9757 H       
  45 H45           -5.5373    -5.6007     2.4523 H       
  46 H46           -5.0630    -5.0868     0.0913 H       
  47 H47           -5.3356    -2.7877    -0.7471 H       
@<TRIPOS>BOND
   1    1    2 am
   2    1   11 1
   3    1    6 1
   4    2    3 1
   5    2    7 2
   6    3    4 2
   7    3    8 1
   8    4    5 1
   9    4   10 1
  10    5    6 2
  11    5   25 1
  12    6   26 1
  13    8    9 3
  14   10   16 1
  15   10   27 1
  16   11   12 1
  17   11   28 1
  18   11   29 1
  19   12   13 1
  20   12   30 1
  21   12   31 1
  22   13   14 1
  23   13   15 1
  24   13   32 1
  25   14   33 1
  26   14   34 1
  27   14   35 1
  28   15   36 1
  29   15   37 1
  30   15   38 1
  31   16   17 1
  32   16   18 1
  33   16   39 1
  34   17   18 1
  35   17   40 1
  36   17   41 1
  37   18   19 1
  38   18   42 1
  39   19   20 ar
  40   19   24 ar
  41   20   21 ar
  42   20   43 1
  43   21   22 ar
  44   21   44 1
  45   22   23 ar
  46   22   45 1
  47   23   24 ar
  48   23   46 1
  49   24   47 1

#	End of record

