#	Name: ASD05380316
#	Creating user name:	WinNT
#	Creation time:	15. 06. 2019 20:59

#	Modifying user name:	WinNT
#	Modification time:	15. 06. 2019 20:59

#	Program:	/corina/corina34_cracker 3.40 0067  02.08.2006

@<TRIPOS>MOLECULE
ASD05380316
  20   21    0    0    0
SMALL
NO_CHARGES


@<TRIPOS>ATOM
   1 C1            -0.0188     1.5367     0.0105 C.3     
   2 C2             0.0021    -0.0041     0.0020 C.3     
   3 N3             1.4048     1.9064    -0.0011 N.am    
   4 C4             2.1432     0.7881    -0.0142 C.2     
   5 O5             1.4203    -0.3375    -0.0133 O.3     
   6 C6            -0.7232     2.0715    -1.2380 C.3     
   7 C7            -0.6551    -0.5482     1.2442 C.2     
   8 O8             3.3582     0.7959    -0.0264 O.2     
   9 S9            -2.2121    -1.2526     1.2992 S.3     
  10 N10           -0.1221    -0.5549     2.4192 N.2     
  11 C11           -0.8356    -1.0709     3.3997 C.2     
  12 C12           -2.0366    -1.5263     3.0310 C.2     
  13 H13           -0.5035     1.9080     0.9134 H       
  14 H14           -0.4925    -0.3880    -0.8902 H       
  15 H15            1.7525     2.8119    -0.0001 H       
  16 H16           -1.7491     1.7042    -1.2618 H       
  17 H17           -0.7278     3.1612    -1.2139 H       
  18 H18           -0.1943     1.7300    -2.1279 H       
  19 H19           -0.4782    -1.1231     4.4175 H       
  20 H20           -2.7696    -1.9829     3.6795 H       
@<TRIPOS>BOND
   1    1    2 1
   2    1    3 1
   3    1    6 1
   4    1   13 1
   5    2    7 1
   6    2    5 1
   7    2   14 1
   8    3    4 am
   9    3   15 1
  10    4    5 1
  11    4    8 2
  12    6   16 1
  13    6   17 1
  14    6   18 1
  15    7    9 1
  16    7   10 2
  17    9   12 1
  18   10   11 1
  19   11   12 2
  20   11   19 1
  21   12   20 1

#	End of record

