#	Name: ASD01948095
#	Creating user name:	WinNT
#	Creation time:	15. 06. 2019 20:13

#	Modifying user name:	WinNT
#	Modification time:	15. 06. 2019 20:13

#	Program:	/corina/corina34_cracker 3.40 0067  02.08.2006

@<TRIPOS>MOLECULE
ASD01948095
  20   21    0    0    0
SMALL
NO_CHARGES


@<TRIPOS>ATOM
   1 C1            -0.0167     1.3779     0.0096 C.2     
   2 C2             0.0021    -0.0041     0.0020 C.2     
   3 C3             1.2179    -0.6922    -0.0133 C.2     
   4 C4             2.3912     0.0492    -0.0206 C.2     
   5 C5             2.3263     1.4338    -0.0125 C.2     
   6 N6             1.1331     2.1002     0.0025 N.am    
   7 S7            -1.4156     2.4629     0.0215 S.3     
   8 C8             0.9927     3.5557     0.0117 C.3     
   9 C9            -0.4641     4.0108     0.0259 C.3     
  10 O10            3.3651     2.0767    -0.0186 O.2     
  11 N11           -1.2717    -0.7585     0.0106 N.pl3   
  12 O12           -2.3331    -0.1613     0.0244 O.2     
  13 O13           -1.2582    -1.9764     0.0040 O.2     
  14 O14            1.2507    -2.0468    -0.0205 O.3     
  15 H15            3.3490    -0.4496    -0.0320 H       
  16 H16            1.4947     3.9517     0.8945 H       
  17 H17            1.4778     3.9613    -0.8762 H       
  18 H18           -0.6857     4.5973    -0.8658 H       
  19 H19           -0.6781     4.5875     0.9257 H       
  20 H20            2.1434    -2.4185    -0.0310 H       
@<TRIPOS>BOND
   1    1    2 2
   2    1    6 1
   3    1    7 1
   4    2    3 1
   5    2   11 1
   6    3    4 2
   7    3   14 1
   8    4    5 1
   9    4   15 1
  10    5    6 am
  11    5   10 2
  12    6    8 1
  13    7    9 1
  14    8    9 1
  15    8   16 1
  16    8   17 1
  17    9   18 1
  18    9   19 1
  19   11   12 2
  20   11   13 2
  21   14   20 1

#	End of record

