#	Name: ASD06590037
#	Creating user name:	WinNT
#	Creation time:	15. 06. 2019 21:06

#	Modifying user name:	WinNT
#	Modification time:	15. 06. 2019 21:06

#	Program:	/corina/corina34_cracker 3.40 0067  02.08.2006

@<TRIPOS>MOLECULE
ASD06590037
 317  317    0    0    0
SMALL
NO_CHARGES


@<TRIPOS>ATOM
   1 C1            -2.1228    -5.4622    -6.1718 C.2     
   2 O2            -2.7950    -5.5911    -7.1731 O.2     
   3 N3            -0.2732    -6.3828    -7.4509 N.3     
   4 C4            -0.6264    -5.6257    -6.2426 C.3     
   5 C5             0.0355    -4.2472    -6.2927 C.3     
   6 C6             1.5559    -4.4092    -6.2388 C.3     
   7 C7             2.2178    -3.0307    -6.2890 C.3     
   8 N8             3.6736    -3.1859    -6.2373 N.pl3   
   9 C9             4.4845    -2.0766    -6.2693 C.2     
  10 N10            3.9678    -0.8981    -6.4668 N.2     
  11 N11            5.8479    -2.2122    -6.0919 N.am    
  12 C12           -4.5193    -4.1181    -3.7607 C.2     
  13 O13           -3.6415    -3.6699    -3.0539 O.2     
  14 N14           -2.7137    -5.1672    -4.9969 N.am    
  15 C15           -4.1678    -5.0023    -4.9293 C.3     
  16 C16           -4.8285    -6.3706    -4.7504 C.3     
  17 C17           -4.5755    -7.2256    -5.9937 C.3     
  18 C18           -5.2263    -8.5734    -5.8175 C.2     
  19 O19           -5.8304    -8.8244    -4.8017 O.2     
  20 O20           -5.1347    -9.4951    -6.7891 O.3     
  21 C21           -7.5556    -3.2679    -1.9111 C.2     
  22 O22           -8.2074    -4.1175    -2.4807 O.2     
  23 N23           -5.8090    -3.8255    -3.5009 N.am    
  24 C24           -6.1506    -2.9659    -2.3649 C.3     
  25 C25           -6.0558    -1.4989    -2.7886 C.3     
  26 C26           -4.6658    -1.2235    -3.3656 C.3     
  27 O27           -7.0465    -1.2248    -3.7814 O.3     
  28 C28          -10.4686    -2.1795    -1.0956 C.2     
  29 O29          -10.1493    -1.3923    -1.9612 O.2     
  30 N30           -8.0879    -2.5939    -0.8725 N.am    
  31 C31           -9.4105    -2.9618    -0.3610 C.3     
  32 C32           -9.4861    -2.6431     1.1335 C.3     
  33 C33           -8.4595    -3.4608     1.8741 C.2     
  34 O34           -7.6796    -4.1565     1.2587 O.2     
  35 N35           -8.4080    -3.4189     3.2202 N.am    
  36 C36          -14.0269    -1.4765    -0.6403 C.2     
  37 O37          -14.0419    -1.9784     0.4637 O.2     
  38 N38          -11.7696    -2.3548    -0.7908 N.am    
  39 C39          -12.7982    -1.5944    -1.5049 C.3     
  40 C40          -13.1567    -2.3174    -2.8047 C.3     
  41 C41          -17.3615     0.0833    -0.9880 C.2     
  42 O42          -17.1397     0.5038    -2.1038 O.2     
  43 N43          -15.1090    -0.8135    -1.0939 N.am    
  44 C44          -16.3034    -0.6989    -0.2534 C.3     
  45 C45          -20.5154     1.7171    -0.1240 C.2     
  46 O46          -20.3384     1.5546     1.0648 O.2     
  47 N47          -18.5542     0.3157    -0.4051 N.am    
  48 C48          -19.5828     1.0762    -1.1192 C.3     
  49 C49          -20.3754     0.1339    -2.0273 C.3     
  50 C50          -19.4537    -0.4209    -3.1153 C.3     
  51 C51          -20.2463    -1.3633    -4.0234 C.3     
  52 N52          -19.3637    -1.8945    -5.0651 N.pl3   
  53 C53          -19.8574    -2.7689    -6.0042 C.2     
  54 N54          -21.1106    -3.1253    -5.9677 N.2     
  55 N55          -19.0292    -3.2674    -6.9818 N.pl3   
  56 C56          -23.7913     3.3354    -0.2366 C.2     
  57 O57          -23.9702     3.0183    -1.3935 O.2     
  58 N58          -21.5463     2.4708    -0.5549 N.am    
  59 C59          -22.4529     3.0938     0.4126 C.3     
  60 C60          -21.8639     4.4269     0.8783 C.3     
  61 O61          -21.8069     5.3337    -0.2247 O.3     
  62 C62          -25.9025     5.5415    -0.9344 C.2     
  63 O63          -24.8430     6.1314    -0.9146 O.2     
  64 N64          -24.7895     3.9038     0.4685 N.am    
  65 C65          -26.0537     4.2391    -0.1914 C.3     
  66 C66          -27.1569     4.3768     0.8598 C.3     
  67 C67          -27.3786     3.0466     1.5324 C.2     
  68 O68          -26.7884     2.0669     1.1430 O.2     
  69 O69          -28.2317     2.9502     2.5642 O.3     
  70 C70          -28.1475     7.9699    -2.4919 C.2     
  71 O71          -29.1271     7.4582    -1.9924 O.2     
  72 N72          -26.9446     6.0507    -1.6208 N.am    
  73 C73          -26.7976     7.3167    -2.3431 C.3     
  74 C74          -26.2056     7.0480    -3.7281 C.3     
  75 C75          -24.8484     6.3579    -3.5775 C.3     
  76 O76          -27.0896     6.2040    -4.4684 O.3     
  77 C77          -29.6220    10.6649    -4.4733 C.2     
  78 O78          -28.6850    10.6871    -5.2430 O.2     
  79 N79          -28.2662     9.1226    -3.1801 N.am    
  80 C80          -29.5553     9.8169    -3.2293 C.3     
  81 C81          -29.7012    10.7095    -1.9952 C.3     
  82 C82          -29.7587     9.8377    -0.7392 C.3     
  83 C83          -29.9046    10.7303     0.4949 C.3     
  84 N84          -29.9596     9.8956     1.6976 N.pl3   
  85 C85          -30.0900    10.4805     2.9349 C.2     
  86 N86          -30.1648    11.7777     3.0379 N.2     
  87 N87          -30.1417     9.6971     4.0635 N.pl3   
  88 C88          -31.7545    13.3584    -5.7225 C.2     
  89 O89          -32.3324    13.4682    -4.6619 O.2     
  90 N90          -30.7229    11.3986    -4.7305 N.am    
  91 C91          -30.7877    12.2230    -5.9398 C.3     
  92 C92          -31.2625    11.3669    -7.1157 C.3     
  93 C93          -30.2189    10.2891    -7.4160 C.3     
  94 C94          -30.6865     9.4460    -8.5742 C.2     
  95 O95          -31.7497     9.6837    -9.1070 O.2     
  96 N96          -29.9231     8.4277    -9.0179 N.am    
  97 C97          -33.4551    15.8183    -7.8249 C.2     
  98 O98          -33.0898    15.2791    -8.8480 O.2     
  99 N99          -31.9768    14.2518    -6.7068 N.am    
 100 C100         -32.9166    15.3556    -6.4956 C.3     
 101 C101         -32.1948    16.5152    -5.8062 C.3     
 102 C102         -31.7569    16.0828    -4.4054 C.3     
 103 C103         -31.0459    17.2249    -3.7264 C.2     
 104 O104         -30.9034    18.2808    -4.3058 O.2     
 105 N105         -30.5683    17.0730    -2.4753 N.am    
 106 C106         -35.3075    18.7178    -9.0597 C.2     
 107 O107         -35.1959    19.3079    -8.0060 O.2     
 108 N108         -34.3426    16.8313    -7.8768 N.am    
 109 C109         -34.8660    17.2811    -9.1691 C.3     
 110 C110         -36.0590    16.4098    -9.5672 C.3     
 111 C111         -35.5935    14.9949    -9.7963 C.ar    
 112 C112         -35.5809    14.0942    -8.7473 C.ar    
 113 C113         -35.1542    12.7968    -8.9546 C.ar    
 114 C114         -34.7386    12.3977   -10.2166 C.ar    
 115 O115         -34.3188    11.1218   -10.4231 O.3     
 116 C116         -34.7527    13.3032   -11.2675 C.ar    
 117 C117         -35.1852    14.5981   -11.0562 C.ar    
 118 C118         -37.3071    21.0266   -11.0681 C.2     
 119 O119         -37.6630    20.1482   -11.8248 O.2     
 120 N120         -35.8264    19.3469   -10.1327 N.am    
 121 C121         -36.2555    20.7436   -10.0264 C.3     
 122 C122         -35.0546    21.6646   -10.2506 C.3     
 123 C123         -34.0413    21.4655    -9.1216 C.3     
 124 C124         -32.8404    22.3865    -9.3458 C.3     
 125 N125         -31.8702    22.1958    -8.2648 N.pl3   
 126 C126         -30.7025    22.9214    -8.2533 C.2     
 127 N127         -30.4586    23.7789    -9.2041 N.2     
 128 N128         -29.7920    22.7424    -7.2388 N.pl3   
 129 C129         -38.2071    22.8886   -13.4746 C.2     
 130 O130         -37.0014    22.9111   -13.5497 O.2     
 131 N131         -37.8521    22.2560   -11.1588 N.am    
 132 C132         -38.8743    22.5312   -12.1714 C.3     
 133 C133         -39.7488    23.6984   -11.7092 C.3     
 134 C134         -40.5223    23.2903   -10.4538 C.3     
 135 C135         -41.3968    24.4576    -9.9916 C.3     
 136 C136         -42.1703    24.0495    -8.7362 C.3     
 137 N137         -43.0099    25.1702    -8.2924 N.3     
 138 O138         -38.9523    23.1819   -14.5518 O.3     
 139 C139           6.3697    -3.4129    -5.7717 C.2     
 140 O140           5.6547    -4.3910    -5.7225 O.2     
 141 C141          20.6092   -14.6390    -1.0389 C.3     
 142 C142          19.1147   -14.5101    -1.3404 C.3     
 143 C143          18.7852   -13.0534    -1.6725 C.3     
 144 C144          17.2908   -12.9245    -1.9741 C.3     
 145 C145          16.9613   -11.4678    -2.3062 C.3     
 146 C146          15.4669   -11.3389    -2.6078 C.3     
 147 C147          15.1374    -9.8822    -2.9399 C.3     
 148 C148          13.6429    -9.7533    -3.2414 C.3     
 149 C149          13.3134    -8.2966    -3.5736 C.3     
 150 C150          11.8190    -8.1677    -3.8751 C.3     
 151 C151          11.4895    -6.7110    -4.2073 C.3     
 152 C152           9.9951    -6.5822    -4.5088 C.3     
 153 C153           9.6656    -5.1254    -4.8410 C.3     
 154 C154           8.1711    -4.9966    -5.1425 C.3     
 155 C155           7.8416    -3.5398    -5.4746 C.3     
 156 H156          -0.6451    -7.3199    -7.4121 H       
 157 H157          -0.5859    -5.9037    -8.2821 H       
 158 H158          -0.2777    -6.1644    -5.3615 H       
 159 H159          -0.2437    -3.7436    -7.2182 H       
 160 H160          -0.2971    -3.6533    -5.4414 H       
 161 H161           1.8350    -4.9129    -5.3133 H       
 162 H162           1.8884    -5.0031    -7.0902 H       
 163 H163           1.9387    -2.5271    -7.2145 H       
 164 H164           1.8853    -2.4368    -5.4376 H       
 165 H165           4.0653    -4.0715    -6.1806 H       
 166 H166           4.5286    -0.1082    -6.4173 H       
 167 H167           6.4296    -1.4433    -6.1978 H       
 168 H168          -2.1761    -5.0641    -4.1961 H       
 169 H169          -4.5248    -4.5443    -5.8517 H       
 170 H170          -4.4062    -6.8665    -3.8764 H       
 171 H171          -5.9017    -6.2405    -4.6112 H       
 172 H172          -4.9978    -6.7297    -6.8678 H       
 173 H173          -3.5023    -7.3558    -6.1330 H       
 174 H174          -5.5683   -10.3447    -6.6304 H       
 175 H175          -6.5110    -4.1840    -4.0662 H       
 176 H176          -5.4562    -3.1532    -1.5458 H       
 177 H177          -6.2229    -0.8589    -1.9223 H       
 178 H178          -4.4987    -1.8635    -4.2320 H       
 179 H179          -4.5982    -0.1783    -3.6675 H       
 180 H180          -3.9101    -1.4325    -2.6084 H       
 181 H181          -6.9590    -1.7594    -4.5824 H       
 182 H182          -7.5952    -1.8653    -0.4635 H       
 183 H183          -9.5754    -4.0284    -0.5139 H       
 184 H184          -9.2875    -1.5828     1.2894 H       
 185 H185         -10.4813    -2.8850     1.5067 H       
 186 H186          -9.0317    -2.8624     3.7123 H       
 187 H187          -7.7471    -3.9452     3.6969 H       
 188 H188         -12.0250    -2.9845    -0.0985 H       
 189 H189         -12.4194    -0.5987    -1.7356 H       
 190 H190         -13.9220    -1.7516    -3.3361 H       
 191 H191         -12.2680    -2.4027    -3.4301 H       
 192 H192         -13.5355    -3.3131    -2.5741 H       
 193 H193         -15.0970    -0.4121    -1.9769 H       
 194 H194         -16.0480    -0.1838     0.6726 H       
 195 H195         -16.6822    -1.6946    -0.0227 H       
 196 H196         -18.7316    -0.0205     0.4873 H       
 197 H197         -19.1088     1.8498    -1.7234 H       
 198 H198         -20.7758    -0.6894    -1.4358 H       
 199 H199         -21.1962     0.6811    -2.4909 H       
 200 H200         -19.0533     0.4024    -3.7069 H       
 201 H201         -18.6328    -0.9681    -2.6518 H       
 202 H202         -20.6466    -2.1865    -3.4318 H       
 203 H203         -21.0671    -0.8161    -4.4869 H       
 204 H204         -18.4311    -1.6293    -5.0923 H       
 205 H205         -21.4589    -3.7422    -6.6302 H       
 206 H206         -18.0965    -3.0022    -7.0090 H       
 207 H207         -19.3775    -3.8844    -7.6443 H       
 208 H208         -21.6879     2.6007    -1.5057 H       
 209 H209         -22.5790     2.4330     1.2701 H       
 210 H210         -22.4930     4.8479     1.6626 H       
 211 H211         -20.8588     4.2640     1.2670 H       
 212 H212         -21.4430     6.2015    -0.0020 H       
 213 H213         -24.6708     4.0907     1.4129 H       
 214 H214         -26.3178     3.4486    -0.8939 H       
 215 H215         -26.8593     5.1153     1.6042 H       
 216 H216         -28.0800     4.6985     0.3777 H       
 217 H217         -28.3410     2.0762     2.9634 H       
 218 H218         -27.7919     5.5789    -1.6366 H       
 219 H219         -26.1335     7.9778    -1.7862 H       
 220 H220         -26.0763     7.9921    -4.2574 H       
 221 H221         -24.9885     5.3753    -3.1267 H       
 222 H222         -24.3872     6.2451    -4.5587 H       
 223 H223         -24.2026     6.9615    -2.9397 H       
 224 H224         -27.9709     6.5788    -4.6026 H       
 225 H225         -27.4982     9.4925    -3.6429 H       
 226 H226         -30.3622     9.0843    -3.2453 H       
 227 H227         -28.8468    11.3833    -1.9311 H       
 228 H228         -30.6186    11.2926    -2.0750 H       
 229 H229         -30.6131     9.1639    -0.8033 H       
 230 H230         -28.8413     9.2545    -0.6594 H       
 231 H231         -29.0502    11.4041     0.5590 H       
 232 H232         -30.8220    11.3135     0.4151 H       
 233 H233         -29.9040     8.9302     1.6209 H       
 234 H234         -30.2568    12.1903     3.9109 H       
 235 H235         -30.0861     8.7317     3.9868 H       
 236 H236         -30.2337    10.1098     4.9365 H       
 237 H237         -31.4723    11.3809    -4.1148 H       
 238 H238         -29.7986    12.6249    -6.1590 H       
 239 H239         -32.2107    10.8935    -6.8610 H       
 240 H240         -31.3959    11.9982    -7.9942 H       
 241 H241         -29.2706    10.7625    -7.6707 H       
 242 H242         -30.0854     9.6578    -6.5375 H       
 243 H243         -29.0727     8.2376    -8.5918 H       
 244 H244         -30.2240     7.8850    -9.7634 H       
 245 H245         -31.5146    14.1640    -7.5551 H       
 246 H246         -33.7407    15.0162    -5.8680 H       
 247 H247         -31.3184    16.7963    -6.3902 H       
 248 H248         -32.8688    17.3683    -5.7290 H       
 249 H249         -32.6332    15.8017    -3.8214 H       
 250 H250         -31.0828    15.2297    -4.4827 H       
 251 H251         -30.6822    16.2285    -2.0119 H       
 252 H252         -30.1106    17.8081    -2.0383 H       
 253 H253         -34.6348    17.2625    -7.0585 H       
 254 H254         -34.0862    17.1972    -9.9260 H       
 255 H255         -36.8013    16.4234    -8.7691 H       
 256 H256         -36.5034    16.7989   -10.4833 H       
 257 H257         -35.9045    14.4053    -7.7650 H       
 258 H258         -35.1438    12.0938    -8.1348 H       
 259 H259         -35.0244    10.5122   -10.6793 H       
 260 H260         -34.4293    12.9951   -12.2508 H       
 261 H261         -35.2005    15.3022   -11.8750 H       
 262 H262         -35.9156    18.8749   -10.9754 H       
 263 H263         -36.6699    20.9218    -9.0341 H       
 264 H264         -34.5864    21.4253   -11.2054 H       
 265 H265         -35.3891    22.7020   -10.2598 H       
 266 H266         -34.5095    21.7048    -8.1668 H       
 267 H267         -33.7069    20.4281    -9.1124 H       
 268 H268         -32.3722    22.1472   -10.3006 H       
 269 H269         -33.1749    23.4239    -9.3551 H       
 270 H270         -32.0517    21.5577    -7.5573 H       
 271 H271         -29.6347    24.2909    -9.1960 H       
 272 H272         -29.9735    22.1043    -6.5312 H       
 273 H273         -28.9681    23.2544    -7.2307 H       
 274 H274         -37.5674    22.9585   -10.5535 H       
 275 H275         -39.4945    21.6458   -12.3116 H       
 276 H276         -39.1178    24.5582   -11.4838 H       
 277 H277         -40.4518    23.9610   -12.4998 H       
 278 H278         -41.1533    22.4306   -10.6792 H       
 279 H279         -39.8193    23.0277    -9.6633 H       
 280 H280         -40.7658    25.3173    -9.7662 H       
 281 H281         -42.0998    24.7202   -10.7821 H       
 282 H282         -42.8013    23.1898    -8.9616 H       
 283 H283         -41.4673    23.7869    -7.9456 H       
 284 H284         -43.6264    25.4747    -9.0308 H       
 285 H285         -43.5313    24.9255    -7.4639 H       
 286 H286         -38.4794    23.4051   -15.3652 H       
 287 H287          20.8643   -14.0059    -0.1890 H       
 288 H288          20.8439   -15.6768    -0.8022 H       
 289 H289          21.1840   -14.3261    -1.9105 H       
 290 H290          18.8596   -15.1432    -2.1902 H       
 291 H291          18.5399   -14.8230    -0.4687 H       
 292 H292          19.0403   -12.4203    -0.8227 H       
 293 H293          19.3601   -12.7405    -2.5442 H       
 294 H294          17.0357   -13.5576    -2.8239 H       
 295 H295          16.7160   -13.2374    -1.1024 H       
 296 H296          17.2164   -10.8347    -1.4564 H       
 297 H297          17.5362   -11.1549    -3.1779 H       
 298 H298          15.2118   -11.9720    -3.4576 H       
 299 H299          14.8920   -11.6518    -1.7361 H       
 300 H300          15.3925    -9.2491    -2.0901 H       
 301 H301          15.7122    -9.5693    -3.8116 H       
 302 H302          13.3878   -10.3864    -4.0913 H       
 303 H303          13.0681   -10.0662    -2.3698 H       
 304 H304          13.5685    -7.6635    -2.7238 H       
 305 H305          13.8883    -7.9837    -4.4452 H       
 306 H306          11.5639    -8.8008    -4.7250 H       
 307 H307          11.2442    -8.4806    -3.0035 H       
 308 H308          11.7446    -6.0779    -3.3574 H       
 309 H309          12.0643    -6.3981    -5.0789 H       
 310 H310           9.7400    -7.2152    -5.3587 H       
 311 H311           9.4202    -6.8950    -3.6372 H       
 312 H312           9.9207    -4.4924    -3.9911 H       
 313 H313          10.2404    -4.8125    -5.7126 H       
 314 H314           7.9160    -5.6296    -5.9923 H       
 315 H315           7.5963    -5.3094    -4.2709 H       
 316 H316           8.4165    -3.2270    -6.3463 H       
 317 H317           8.0967    -2.9068    -4.6248 H       
@<TRIPOS>BOND
   1    1    2 2
   2    1    4 1
   3    1   14 am
   4    3    4 1
   5    3  156 1
   6    3  157 1
   7    4    5 1
   8    4  158 1
   9    5    6 1
  10    5  159 1
  11    5  160 1
  12    6    7 1
  13    6  161 1
  14    6  162 1
  15    7    8 1
  16    7  163 1
  17    7  164 1
  18    8    9 1
  19    8  165 1
  20    9   10 2
  21    9   11 1
  22   10  166 1
  23   11  139 am
  24   11  167 1
  25   12   13 2
  26   12   15 1
  27   12   23 am
  28   14   15 1
  29   14  168 1
  30   15   16 1
  31   15  169 1
  32   16   17 1
  33   16  170 1
  34   16  171 1
  35   17   18 1
  36   17  172 1
  37   17  173 1
  38   18   19 2
  39   18   20 1
  40   20  174 1
  41   21   22 2
  42   21   24 1
  43   21   30 am
  44   23   24 1
  45   23  175 1
  46   24   25 1
  47   24  176 1
  48   25   26 1
  49   25   27 1
  50   25  177 1
  51   26  178 1
  52   26  179 1
  53   26  180 1
  54   27  181 1
  55   28   29 2
  56   28   31 1
  57   28   38 am
  58   30   31 1
  59   30  182 1
  60   31   32 1
  61   31  183 1
  62   32   33 1
  63   32  184 1
  64   32  185 1
  65   33   34 2
  66   33   35 am
  67   35  186 1
  68   35  187 1
  69   36   37 2
  70   36   39 1
  71   36   43 am
  72   38   39 1
  73   38  188 1
  74   39   40 1
  75   39  189 1
  76   40  190 1
  77   40  191 1
  78   40  192 1
  79   41   42 2
  80   41   44 1
  81   41   47 am
  82   43   44 1
  83   43  193 1
  84   44  194 1
  85   44  195 1
  86   45   46 2
  87   45   48 1
  88   45   58 am
  89   47   48 1
  90   47  196 1
  91   48   49 1
  92   48  197 1
  93   49   50 1
  94   49  198 1
  95   49  199 1
  96   50   51 1
  97   50  200 1
  98   50  201 1
  99   51   52 1
 100   51  202 1
 101   51  203 1
 102   52   53 1
 103   52  204 1
 104   53   54 2
 105   53   55 1
 106   54  205 1
 107   55  206 1
 108   55  207 1
 109   56   57 2
 110   56   59 1
 111   56   64 am
 112   58   59 1
 113   58  208 1
 114   59   60 1
 115   59  209 1
 116   60   61 1
 117   60  210 1
 118   60  211 1
 119   61  212 1
 120   62   63 2
 121   62   65 1
 122   62   72 am
 123   64   65 1
 124   64  213 1
 125   65   66 1
 126   65  214 1
 127   66   67 1
 128   66  215 1
 129   66  216 1
 130   67   68 2
 131   67   69 1
 132   69  217 1
 133   70   71 2
 134   70   73 1
 135   70   79 am
 136   72   73 1
 137   72  218 1
 138   73   74 1
 139   73  219 1
 140   74   75 1
 141   74   76 1
 142   74  220 1
 143   75  221 1
 144   75  222 1
 145   75  223 1
 146   76  224 1
 147   77   78 2
 148   77   80 1
 149   77   90 am
 150   79   80 1
 151   79  225 1
 152   80   81 1
 153   80  226 1
 154   81   82 1
 155   81  227 1
 156   81  228 1
 157   82   83 1
 158   82  229 1
 159   82  230 1
 160   83   84 1
 161   83  231 1
 162   83  232 1
 163   84   85 1
 164   84  233 1
 165   85   86 2
 166   85   87 1
 167   86  234 1
 168   87  235 1
 169   87  236 1
 170   88   89 2
 171   88   91 1
 172   88   99 am
 173   90   91 1
 174   90  237 1
 175   91   92 1
 176   91  238 1
 177   92   93 1
 178   92  239 1
 179   92  240 1
 180   93   94 1
 181   93  241 1
 182   93  242 1
 183   94   95 2
 184   94   96 am
 185   96  243 1
 186   96  244 1
 187   97   98 2
 188   97  100 1
 189   97  108 am
 190   99  100 1
 191   99  245 1
 192  100  101 1
 193  100  246 1
 194  101  102 1
 195  101  247 1
 196  101  248 1
 197  102  103 1
 198  102  249 1
 199  102  250 1
 200  103  104 2
 201  103  105 am
 202  105  251 1
 203  105  252 1
 204  106  107 2
 205  106  109 1
 206  106  120 am
 207  108  109 1
 208  108  253 1
 209  109  110 1
 210  109  254 1
 211  110  111 1
 212  110  255 1
 213  110  256 1
 214  111  112 ar
 215  111  117 ar
 216  112  113 ar
 217  112  257 1
 218  113  114 ar
 219  113  258 1
 220  114  115 1
 221  114  116 ar
 222  115  259 1
 223  116  117 ar
 224  116  260 1
 225  117  261 1
 226  118  119 2
 227  118  121 1
 228  118  131 am
 229  120  121 1
 230  120  262 1
 231  121  122 1
 232  121  263 1
 233  122  123 1
 234  122  264 1
 235  122  265 1
 236  123  124 1
 237  123  266 1
 238  123  267 1
 239  124  125 1
 240  124  268 1
 241  124  269 1
 242  125  126 1
 243  125  270 1
 244  126  127 2
 245  126  128 1
 246  127  271 1
 247  128  272 1
 248  128  273 1
 249  129  130 2
 250  129  132 1
 251  129  138 1
 252  131  132 1
 253  131  274 1
 254  132  133 1
 255  132  275 1
 256  133  134 1
 257  133  276 1
 258  133  277 1
 259  134  135 1
 260  134  278 1
 261  134  279 1
 262  135  136 1
 263  135  280 1
 264  135  281 1
 265  136  137 1
 266  136  282 1
 267  136  283 1
 268  137  284 1
 269  137  285 1
 270  138  286 1
 271  139  140 2
 272  139  155 1
 273  141  142 1
 274  141  287 1
 275  141  288 1
 276  141  289 1
 277  142  143 1
 278  142  290 1
 279  142  291 1
 280  143  144 1
 281  143  292 1
 282  143  293 1
 283  144  145 1
 284  144  294 1
 285  144  295 1
 286  145  146 1
 287  145  296 1
 288  145  297 1
 289  146  147 1
 290  146  298 1
 291  146  299 1
 292  147  148 1
 293  147  300 1
 294  147  301 1
 295  148  149 1
 296  148  302 1
 297  148  303 1
 298  149  150 1
 299  149  304 1
 300  149  305 1
 301  150  151 1
 302  150  306 1
 303  150  307 1
 304  151  152 1
 305  151  308 1
 306  151  309 1
 307  152  153 1
 308  152  310 1
 309  152  311 1
 310  153  154 1
 311  153  312 1
 312  153  313 1
 313  154  155 1
 314  154  314 1
 315  154  315 1
 316  155  316 1
 317  155  317 1

#	End of record

