#	Name: ASD02560240
#	Creating user name:	WinNT
#	Creation time:	15. 06. 2019 20:24

#	Modifying user name:	WinNT
#	Modification time:	15. 06. 2019 20:24

#	Program:	/corina/corina34_cracker 3.40 0067  02.08.2006

@<TRIPOS>MOLECULE
ASD02560240
  32   34    0    0    0
SMALL
NO_CHARGES


@<TRIPOS>ATOM
   1 N1             0.0347     1.2485     0.4153 N.2     
   2 N2             0.0476    -0.0116     0.3709 N.2     
   3 C3             1.1746    -0.5939     0.0756 C.2     
   4 S4             2.3801     0.6700    -0.1785 S.3     
   5 C5             1.1380     1.8756     0.1654 C.2     
   6 C6             1.3288     3.3704     0.1668 C.3     
   7 N7             1.3889    -1.9615    -0.0217 N.pl3   
   8 C8             0.3130    -2.8472     0.0888 C.ar    
   9 C9            -0.9589    -2.4496    -0.3036 C.ar    
  10 C10           -2.0198    -3.3268    -0.1938 C.ar    
  11 C11           -1.8169    -4.6008     0.3071 C.ar    
  12 C12           -0.5510    -4.9995     0.6992 C.ar    
  13 C13            0.5147    -4.1286     0.5859 C.ar    
  14 C14            1.7311     3.8242     1.5464 C.ar    
  15 C15            3.0691     3.8856     1.8919 C.ar    
  16 C16            3.4378     4.3023     3.1587 C.ar    
  17 C17            2.4695     4.6571     4.0790 C.ar    
  18 C18            1.1323     4.5955     3.7345 C.ar    
  19 C19            0.7626     4.1849     2.4660 C.ar    
  20 Cl20          -0.9169     4.1076     2.0335 Cl      
  21 Cl21           4.2855     3.4394     0.7364 Cl      
  22 Cl22          -3.1530    -5.7008     0.4443 Cl      
  23 H23            2.1093     3.6378    -0.5456 H       
  24 H24            0.3954     3.8561    -0.1176 H       
  25 H25            2.2853    -2.3028    -0.1664 H       
  26 H26           -1.1179    -1.4552    -0.6939 H       
  27 H27           -3.0088    -3.0182    -0.4987 H       
  28 H28           -0.3956    -5.9943     1.0901 H       
  29 H29            1.5025    -4.4404     0.8917 H       
  30 H30            4.4825     4.3499     3.4286 H       
  31 H31            2.7578     4.9823     5.0677 H       
  32 H32            0.3761     4.8722     4.4542 H       
@<TRIPOS>BOND
   1    1    2 1
   2    1    5 2
   3    2    3 2
   4    3    4 1
   5    3    7 1
   6    4    5 1
   7    5    6 1
   8    6   14 1
   9    6   23 1
  10    6   24 1
  11    7    8 1
  12    7   25 1
  13    8    9 ar
  14    8   13 ar
  15    9   10 ar
  16    9   26 1
  17   10   11 ar
  18   10   27 1
  19   11   12 ar
  20   11   22 1
  21   12   13 ar
  22   12   28 1
  23   13   29 1
  24   14   15 ar
  25   14   19 ar
  26   15   16 ar
  27   15   21 1
  28   16   17 ar
  29   16   30 1
  30   17   18 ar
  31   17   31 1
  32   18   19 ar
  33   18   32 1
  34   19   20 1

#	End of record

