#	Name: ASD01410347
#	Creating user name:	WinNT
#	Creation time:	15. 06. 2019 19:17

#	Modifying user name:	WinNT
#	Modification time:	15. 06. 2019 19:17

#	Program:	/corina/corina34_cracker 3.40 0067  02.08.2006

@<TRIPOS>MOLECULE
ASD01410347
  61   65    0    0    0
SMALL
NO_CHARGES


@<TRIPOS>ATOM
   1 N1            -0.0166     1.3720     0.0096 N.pl3   
   2 C2             0.0021    -0.0041     0.0020 C.2     
   3 C3            -1.2760    -0.4702     0.0117 C.2     
   4 C4            -2.1438     0.6465     0.0260 C.ar    
   5 C5            -1.3295     1.7979     0.0304 C.ar    
   6 C6            -3.5409     0.7768     0.0400 C.ar    
   7 C7            -4.1094     2.0129     0.0516 C.ar    
   8 C8            -3.3071     3.1643     0.0497 C.ar    
   9 C9            -1.9171     3.0525     0.0437 C.ar    
  10 C10           -2.5149    -2.2158     1.2635 C.3     
  11 C11           -2.9381    -3.6861     1.2596 C.3     
  12 C12           -3.7841    -3.9701     0.0169 C.3     
  13 C13           -2.9619    -3.6727    -1.2387 C.3     
  14 C14           -2.5388    -2.2024    -1.2348 C.3     
  15 C15           -1.6927    -1.9184     0.0079 C.3     
  16 C16            1.1625     2.2414     0.0030 C.3     
  17 C17            1.5532     2.5472    -1.4200 C.2     
  18 O18            0.9101     2.0844    -2.3382 O.2     
  19 C19            2.9972     3.6321    -3.0555 C.3     
  20 N20            2.6174     3.3349    -1.6722 N.am    
  21 C21            3.3942     3.8939    -0.5630 C.3     
  22 C22            5.4743    -2.5615    -1.0658 C.ar    
  23 C23            5.2018    -3.5342    -0.1133 C.ar    
  24 C24            4.0056    -3.5207     0.5657 C.ar    
  25 C25            3.0585    -2.5284     0.3008 C.ar    
  26 C26            3.3282    -1.5452    -0.6587 C.ar    
  27 C27            4.5668    -1.5856    -1.3402 C.ar    
  28 S28            1.4651    -2.2526     0.9954 S.3     
  29 C29            1.2138    -0.8398    -0.0145 C.2     
  30 C30            2.2730    -0.6264    -0.8004 C.2     
  31 C31           -3.9361     4.4969     0.0613 C.2     
  32 O32           -3.2438     5.4957     0.0597 O.2     
  33 O33           -5.2792     4.6081     0.0738 O.3     
  34 H34           -4.1651    -0.1045     0.0413 H       
  35 H35           -5.1851     2.1085     0.0620 H       
  36 H36           -1.3015     3.9399     0.0426 H       
  37 H37           -3.4020    -1.5825     1.2754 H       
  38 H38           -1.9122    -2.0135     2.1489 H       
  39 H39           -2.0510    -4.3195     1.2478 H       
  40 H40           -3.5238    -3.8980     2.1541 H       
  41 H41           -4.0855    -5.0176     0.0141 H       
  42 H42           -4.6712    -3.3368     0.0287 H       
  43 H43           -2.0749    -4.3060    -1.2506 H       
  44 H44           -3.5646    -3.8750    -2.1241 H       
  45 H45           -1.9530    -1.9905    -2.1293 H       
  46 H46           -3.4258    -1.5691    -1.2230 H       
  47 H47           -0.8057    -2.5518    -0.0040 H       
  48 H48            0.9317     3.1706     0.5241 H       
  49 H49            1.9880     1.7380     0.5063 H       
  50 H50            3.7012     2.8787    -3.4089 H       
  51 H51            2.1084     3.6230    -3.6864 H       
  52 H52            3.4647     4.6157    -3.1006 H       
  53 H53            2.9771     4.8596    -0.2777 H       
  54 H54            3.3529     3.2144     0.2883 H       
  55 H55            4.4307     4.0235    -0.8744 H       
  56 H56            6.4178    -2.5770    -1.5910 H       
  57 H57            5.9307    -4.3035     0.0947 H       
  58 H58            3.7978    -4.2796     1.3055 H       
  59 H59            4.7940    -0.8363    -2.0840 H       
  60 H60            2.3161     0.1970    -1.4980 H       
  61 H61           -5.6456     5.5030     0.0812 H       
@<TRIPOS>BOND
   1    1    2 1
   2    1   16 1
   3    1    5 1
   4    2    3 2
   5    2   29 1
   6    3    4 1
   7    3   15 1
   8    4    5 ar
   9    4    6 ar
  10    5    9 ar
  11    6    7 ar
  12    6   34 1
  13    7    8 ar
  14    7   35 1
  15    8    9 ar
  16    8   31 1
  17    9   36 1
  18   10   11 1
  19   10   15 1
  20   10   37 1
  21   10   38 1
  22   11   12 1
  23   11   39 1
  24   11   40 1
  25   12   13 1
  26   12   41 1
  27   12   42 1
  28   13   14 1
  29   13   43 1
  30   13   44 1
  31   14   15 1
  32   14   45 1
  33   14   46 1
  34   15   47 1
  35   16   17 1
  36   16   48 1
  37   16   49 1
  38   17   18 2
  39   17   20 am
  40   19   20 1
  41   19   50 1
  42   19   51 1
  43   19   52 1
  44   20   21 1
  45   21   53 1
  46   21   54 1
  47   21   55 1
  48   22   23 ar
  49   22   27 ar
  50   22   56 1
  51   23   24 ar
  52   23   57 1
  53   24   25 ar
  54   24   58 1
  55   25   26 ar
  56   25   28 1
  57   26   27 ar
  58   26   30 1
  59   27   59 1
  60   28   29 1
  61   29   30 2
  62   30   60 1
  63   31   32 2
  64   31   33 1
  65   33   61 1

#	End of record

