#	Name: ASD05170071
#	Creating user name:	WinNT
#	Creation time:	15. 06. 2019 20:57

#	Modifying user name:	WinNT
#	Modification time:	15. 06. 2019 20:57

#	Program:	/corina/corina34_cracker 3.40 0067  02.08.2006

@<TRIPOS>MOLECULE
ASD05170071
  43   46    0    0    0
SMALL
NO_CHARGES


@<TRIPOS>ATOM
   1 C1            -0.2244     1.4600    -1.1228 C.ar    
   2 C2            -0.2357     0.0848    -1.2766 C.ar    
   3 C3             0.9623    -0.6069    -1.1408 C.ar    
   4 C4             2.1193     0.0953    -0.8585 C.ar    
   5 N5             2.0961     1.4073    -0.7174 N.ar    
   6 C6             0.9759     2.0990    -0.8398 C.ar    
   7 O7             0.9992     3.4474    -0.6874 O.3     
   8 C8             2.2641     4.0458    -0.3974 C.3     
   9 C9             2.0953     5.5373    -0.2633 C.2     
  10 C10            0.8931     6.2457    -0.3927 C.2     
  11 N11            3.0474     6.4014     0.0010 N.2     
  12 C12            1.2296     7.5545    -0.1938 C.2     
  13 C13            0.4214     8.7833    -0.1951 C.2     
  14 N14            2.5835     7.5881     0.0582 N.pl3   
  15 C15            3.2698     8.8517     0.3529 C.3     
  16 C16            2.5534     9.9939    -0.3662 C.3     
  17 N17            1.1054     9.9530    -0.1758 N.am    
  18 O18           -0.7945     8.7514    -0.2131 O.2     
  19 C19            0.4098    11.1486     0.0367 C.ar    
  20 C20           -0.8644    12.5818     1.4765 C.ar    
  21 C21           -0.1788    11.4011     1.2689 C.ar    
  22 C22            0.3121    12.0867    -0.9826 C.ar    
  23 C23           -0.3744    13.2662    -0.7707 C.ar    
  24 C24           -0.9647    13.5138     0.4572 C.ar    
  25 F25           -1.6359    14.6683     0.6625 F       
  26 C26            3.2487     9.1049     1.8617 C.3     
  27 F27            0.9957    -1.9500    -1.2827 F       
  28 H28           -1.1362     2.0294    -1.2260 H       
  29 H29           -1.1542    -0.4390    -1.4966 H       
  30 H30            3.0533    -0.4363    -0.7518 H       
  31 H31            2.6531     3.6388     0.5359 H       
  32 H32            2.9619     3.8304    -1.2066 H       
  33 H33           -0.0870     5.8440    -0.6038 H       
  34 H34            4.3020     8.7946     0.0072 H       
  35 H35            2.9319    10.9425     0.0145 H       
  36 H36            2.7723     9.9315    -1.4322 H       
  37 H37           -1.3227    12.7784     2.4345 H       
  38 H38           -0.1008    10.6744     2.0640 H       
  39 H39            0.7730    11.8943    -1.9402 H       
  40 H40           -0.4507    13.9961    -1.5631 H       
  41 H41            3.7564     8.2879     2.3743 H       
  42 H42            3.7585    10.0433     2.0798 H       
  43 H43            2.2161     9.1639     2.2058 H       
@<TRIPOS>BOND
   1    1    2 ar
   2    1    6 ar
   3    1   28 1
   4    2    3 ar
   5    2   29 1
   6    3    4 ar
   7    3   27 1
   8    4    5 ar
   9    4   30 1
  10    5    6 ar
  11    6    7 1
  12    7    8 1
  13    8    9 1
  14    8   31 1
  15    8   32 1
  16    9   11 2
  17    9   10 1
  18   10   12 2
  19   10   33 1
  20   11   14 1
  21   12   14 1
  22   12   13 1
  23   13   17 am
  24   13   18 2
  25   14   15 1
  26   15   16 1
  27   15   26 1
  28   15   34 1
  29   16   17 1
  30   16   35 1
  31   16   36 1
  32   17   19 1
  33   19   22 ar
  34   19   21 ar
  35   20   21 ar
  36   20   24 ar
  37   20   37 1
  38   21   38 1
  39   22   23 ar
  40   22   39 1
  41   23   24 ar
  42   23   40 1
  43   24   25 1
  44   26   41 1
  45   26   42 1
  46   26   43 1

#	End of record

