#	Name: ASD01916631
#	Creating user name:	WinNT
#	Creation time:	15. 06. 2019 20:07

#	Modifying user name:	WinNT
#	Modification time:	15. 06. 2019 20:07

#	Program:	/corina/corina34_cracker 3.40 0067  02.08.2006

@<TRIPOS>MOLECULE
ASD01916631
  34   36    0    0    0
SMALL
NO_CHARGES


@<TRIPOS>ATOM
   1 C1            -0.0168     1.3912     0.0097 C.ar    
   2 C2             0.0021    -0.0041     0.0020 C.ar    
   3 C3             1.2204    -0.6594    -0.0131 C.ar    
   4 C4             2.3820     0.1007    -0.0201 C.ar    
   5 C5             2.2905     1.4803    -0.0118 C.ar    
   6 N6             1.1180     2.0808     0.0026 N.ar    
   7 C7            -1.2697     2.0847     0.0194 C.1     
   8 C8            -2.2967     2.6533     0.0273 C.1     
   9 C9            -3.5846     3.3662     0.0372 C.3     
  10 C10           -3.3321     4.8752     0.0443 C.3     
  11 N11           -5.2610     5.9401     1.1104 N.2     
  12 N12           -4.6138     5.5848     0.0541 N.pl3   
  13 N13           -5.2702     5.9511    -0.9909 N.2     
  14 N14           -6.3510     6.5484    -0.6184 N.2     
  15 C15           -6.3625     6.5510     0.7220 C.2     
  16 C16           -7.4118     7.1294     1.5986 C.ar    
  17 C17           -8.5271     7.7485     1.0389 C.ar    
  18 C18           -9.4997     8.2846     1.8585 C.ar    
  19 C19           -9.3682     8.2085     3.2332 C.ar    
  20 C20           -8.2627     7.5949     3.7942 C.ar    
  21 C21           -7.2873     7.0500     2.9838 C.ar    
  22 H22           -0.9212    -0.5644     0.0082 H       
  23 H23            1.2668    -1.7384    -0.0190 H       
  24 H24            3.3484    -0.3812    -0.0315 H       
  25 H25            3.1928     2.0739    -0.0172 H       
  26 H26           -4.1555     3.0975    -0.8515 H       
  27 H27           -4.1471     3.0878     0.9284 H       
  28 H28           -2.7611     5.1440     0.9330 H       
  29 H29           -2.7695     5.1536    -0.8469 H       
  30 H30           -8.6305     7.8091    -0.0344 H       
  31 H31          -10.3648     8.7648     1.4255 H       
  32 H32          -10.1311     8.6299     3.8710 H       
  33 H33           -8.1649     7.5382     4.8683 H       
  34 H34           -6.4269     6.5669     3.4228 H       
@<TRIPOS>BOND
   1    1    2 ar
   2    1    6 ar
   3    1    7 1
   4    2    3 ar
   5    2   22 1
   6    3    4 ar
   7    3   23 1
   8    4    5 ar
   9    4   24 1
  10    5    6 ar
  11    5   25 1
  12    7    8 3
  13    8    9 1
  14    9   10 1
  15    9   26 1
  16    9   27 1
  17   10   12 1
  18   10   28 1
  19   10   29 1
  20   11   12 1
  21   11   15 2
  22   12   13 1
  23   13   14 2
  24   14   15 1
  25   15   16 1
  26   16   17 ar
  27   16   21 ar
  28   17   18 ar
  29   17   30 1
  30   18   19 ar
  31   18   31 1
  32   19   20 ar
  33   19   32 1
  34   20   21 ar
  35   20   33 1
  36   21   34 1

#	End of record

