#	Name: ASD02198056
#	Creating user name:	WinNT
#	Creation time:	15. 06. 2019 20:18

#	Modifying user name:	WinNT
#	Modification time:	15. 06. 2019 20:18

#	Program:	/corina/corina34_cracker 3.40 0067  02.08.2006

@<TRIPOS>MOLECULE
ASD02198056
  50   53    0    0    0
SMALL
NO_CHARGES


@<TRIPOS>ATOM
   1 C1             0.3020     1.4002    -0.2817 C.2     
   2 C2             0.1319     0.0322    -0.2615 C.2     
   3 C3            -1.1215    -0.5944     0.0332 C.1     
   4 S4             1.9123     1.8066    -0.6672 S.3     
   5 C5             2.3746     0.1180    -0.8058 C.2     
   6 C6             1.2900    -0.6857    -0.5544 C.2     
   7 C7             3.6673    -0.3438    -1.1270 C.2     
   8 C8             4.7189     0.6172    -1.5182 C.2     
   9 O9             3.9175    -1.5365    -1.0819 O.2     
  10 N10            1.3417    -2.0713    -0.5888 N.pl3   
  11 N11           -0.6952     2.3146    -0.0304 N.pl3   
  12 N12           -2.1159    -1.0915     0.2671 N.1     
  13 C13           -0.3905     3.6783     0.0483 C.ar    
  14 C14           -1.2967     4.6210    -0.4197 C.ar    
  15 C15            4.5510     2.0039    -1.7270 C.2     
  16 N16            5.7085     2.5070    -2.0594 N.2     
  17 N17            6.6596     1.4807    -2.0791 N.pl3   
  18 C18            6.0490     0.3284    -1.7419 C.2     
  19 C19            8.0180     1.6277    -2.3913 C.ar    
  20 C20            8.4154     2.5486    -3.3514 C.ar    
  21 C21            6.6975    -1.0279    -1.6376 C.3     
  22 C22            0.8160     4.0900     0.5997 C.ar    
  23 C23            1.1158     5.4357     0.6770 C.ar    
  24 C24            0.2124     6.3763     0.2040 C.ar    
  25 C25           -0.9953     5.9662    -0.3417 C.ar    
  26 C26            8.9695     0.8570    -1.7368 C.ar    
  27 C27           10.3075     1.0045    -2.0463 C.ar    
  28 C28           10.6997     1.9188    -3.0067 C.ar    
  29 C29            9.7548     2.6916    -3.6565 C.ar    
  30 O30            0.5085     7.7013     0.2805 O.3     
  31 C31           -0.4674     8.6143    -0.2255 C.3     
  32 H32            2.1753    -2.5205    -0.7989 H       
  33 H33            0.5441    -2.5911    -0.4029 H       
  34 H34           -1.6092     2.0140     0.0922 H       
  35 H35           -2.2368     4.3019    -0.8449 H       
  36 H36            3.6257     2.5524    -1.6292 H       
  37 H37            7.6779     3.1522    -3.8595 H       
  38 H38            7.0658    -1.1775    -0.6227 H       
  39 H39            5.9658    -1.7998    -1.8761 H       
  40 H40            7.5300    -1.0874    -2.3387 H       
  41 H41            1.5192     3.3579     0.9683 H       
  42 H42            2.0537     5.7561     1.1060 H       
  43 H43           -1.6978     6.6991    -0.7100 H       
  44 H44            8.6638     0.1430    -0.9863 H       
  45 H45           11.0481     0.4055    -1.5373 H       
  46 H46           11.7465     2.0323    -3.2470 H       
  47 H47           10.0642     3.4045    -4.4064 H       
  48 H48           -0.1068     9.6358    -0.1039 H       
  49 H49           -0.6394     8.4132    -1.2829 H       
  50 H50           -1.4003     8.4905     0.3243 H       
@<TRIPOS>BOND
   1    1    2 2
   2    1    4 1
   3    1   11 1
   4    2    3 1
   5    2    6 1
   6    3   12 3
   7    4    5 1
   8    5    6 2
   9    5    7 1
  10    6   10 1
  11    7    8 1
  12    7    9 2
  13    8   15 1
  14    8   18 2
  15   10   32 1
  16   10   33 1
  17   11   13 1
  18   11   34 1
  19   13   14 ar
  20   13   22 ar
  21   14   25 ar
  22   14   35 1
  23   15   16 2
  24   15   36 1
  25   16   17 1
  26   17   18 1
  27   17   19 1
  28   18   21 1
  29   19   20 ar
  30   19   26 ar
  31   20   29 ar
  32   20   37 1
  33   21   38 1
  34   21   39 1
  35   21   40 1
  36   22   23 ar
  37   22   41 1
  38   23   24 ar
  39   23   42 1
  40   24   25 ar
  41   24   30 1
  42   25   43 1
  43   26   27 ar
  44   26   44 1
  45   27   28 ar
  46   27   45 1
  47   28   29 ar
  48   28   46 1
  49   29   47 1
  50   30   31 1
  51   31   48 1
  52   31   49 1
  53   31   50 1

#	End of record

