#	Name: ASD06610068
#	Creating user name:	WinNT
#	Creation time:	15. 06. 2019 21:07

#	Modifying user name:	WinNT
#	Modification time:	15. 06. 2019 21:07

#	Program:	/corina/corina34_cracker 3.40 0067  02.08.2006

@<TRIPOS>MOLECULE
ASD06610068
 260  260    0    0    0
SMALL
NO_CHARGES


@<TRIPOS>ATOM
   1 C1           -15.4157    10.0100    13.1953 C.2     
   2 O2           -15.3333     8.8992    13.6751 O.2     
   3 N3           -14.4495    10.8112    15.2723 N.am    
   4 C4           -14.7728    11.1814    13.8922 C.3     
   5 C5           -13.4902    11.5721    13.1551 C.3     
   6 C6           -12.9108    12.8434    13.7787 C.3     
   7 C7           -12.4704    10.4373    13.2696 C.3     
   8 C8           -16.7433     9.3884     9.8466 C.2     
   9 O9           -16.8285    10.5478     9.5011 O.2     
  10 N10          -16.0774    10.1959    12.0360 N.am    
  11 C11          -16.6182     9.0450    11.3086 C.3     
  12 C12          -17.9970     8.6896    11.8687 C.3     
  13 C13          -17.8561     8.2434    13.3254 C.3     
  14 C14          -19.2349     7.8881    13.8855 C.3     
  15 N15          -19.1000     7.4609    15.2803 N.pl3   
  16 C16          -20.2135     7.0899    15.9964 C.2     
  17 N17          -21.3891     7.1183    15.4342 N.2     
  18 N18          -20.0869     6.6889    17.3053 N.pl3   
  19 C19          -18.2788     9.2546     7.2155 C.2     
  20 O20          -19.0048     9.5444     8.1427 O.2     
  21 N21          -16.7603     8.4070     8.9229 N.am    
  22 C22          -16.9496     8.5944     7.4770 C.3     
  23 C23          -16.9214     7.1954     6.8262 C.3     
  24 C24          -17.2837     6.2556     8.0064 C.3     
  25 C25          -16.5858     6.9685     9.1944 C.3     
  26 C26          -20.4224     9.8159     4.3081 C.2     
  27 O27          -19.6541     9.3109     3.5172 O.2     
  28 N28          -18.6606     9.5231     5.9511 N.am    
  29 C29          -19.9528    10.1650     5.6969 C.3     
  30 C30          -19.8008    11.6826     5.8175 C.3     
  31 C31          -19.3736    12.0408     7.2423 C.3     
  32 C32          -18.7389    12.1690     4.8292 C.3     
  33 C33          -23.3076    10.7076     2.2481 C.2     
  34 O34          -23.7512    11.4548     3.0941 O.2     
  35 N35          -21.6962    10.0650     3.9450 N.am    
  36 C36          -22.1233     9.8306     2.5634 C.3     
  37 C37          -22.5166     8.3619     2.3933 C.3     
  38 C38          -26.2946    10.6323     1.1925 C.2     
  39 O39          -26.1480     9.5333     1.6842 O.2     
  40 N40          -23.8737    10.6615     1.0258 N.am    
  41 C41          -25.0923    11.4279     0.7537 C.3     
  42 C42          -25.1902    11.7146    -0.7460 C.3     
  43 C43          -24.0434    12.5983    -1.1644 C.2     
  44 O44          -23.1886    12.9039    -0.3602 O.2     
  45 N45          -23.9677    13.0489    -2.4323 N.am    
  46 C46          -29.9096    10.8095     0.6798 C.2     
  47 O47          -29.8047    11.6837    -0.1543 O.2     
  48 N48          -27.5327    11.1420     1.0386 N.am    
  49 C49          -28.7015    10.3686     1.4652 C.3     
  50 C50          -28.9502    10.6012     2.9569 C.3     
  51 C51          -33.5296    10.3673     0.9320 C.2     
  52 O52          -33.4464     9.8507     2.0261 O.2     
  53 N53          -31.1067    10.2324     0.9041 N.am    
  54 C54          -32.2812    10.6610     0.1405 C.3     
  55 C55          -32.3298     9.9040    -1.1882 C.3     
  56 C56          -31.1245    10.2983    -2.0441 C.3     
  57 C57          -31.1731     9.5413    -3.3729 C.3     
  58 N58          -30.0190     9.9188    -4.1925 N.pl3   
  59 C59          -29.8492     9.3627    -5.4382 C.2     
  60 N60          -28.8223     9.6986    -6.1675 N.2     
  61 N61          -30.7624     8.4522    -5.9149 N.pl3   
  62 C62          -37.1299    10.2761     0.3329 C.2     
  63 O63          -37.1367    10.7481    -0.7843 O.2     
  64 N64          -34.7384    10.6786     0.4239 N.am    
  65 C65          -35.9437    10.4954     1.2363 C.3     
  66 C66          -36.1772    11.7429     2.0908 C.3     
  67 C67          -37.3907    11.5212     2.9959 C.3     
  68 C68          -37.0901    10.3932     3.9848 C.3     
  69 C69          -37.6940    12.8078     3.7665 C.3     
  70 C70          -40.5750     9.1480     0.8033 C.2     
  71 O71          -40.4407     9.0588     2.0053 O.2     
  72 N72          -38.1830     9.5555     0.7665 N.am    
  73 C73          -39.3796     9.4312    -0.0695 C.3     
  74 C74          -39.1904     8.2834    -1.0634 C.3     
  75 C75          -38.0553     8.6275    -2.0298 C.3     
  76 C76          -37.8661     7.4797    -3.0236 C.3     
  77 N77          -36.7793     7.8092    -3.9491 N.pl3   
  78 C78          -36.4254     6.9217    -4.9377 C.2     
  79 N79          -37.0569     5.7872    -5.0516 N.2     
  80 N80          -35.4054     7.2309    -5.8061 N.pl3   
  81 C81          -44.0088     8.0043     0.2895 C.2     
  82 O82          -43.8085     7.7502    -0.8794 O.2     
  83 N83          -41.7934     8.9939     0.2481 N.am    
  84 C84          -42.9555     8.7186     1.0966 C.3     
  85 C85          -43.5248    10.0368     1.6251 C.3     
  86 C86          -42.4999    10.7021     2.5459 C.3     
  87 C87          -43.0165    12.0768     2.9751 C.3     
  88 C88          -42.2839     9.8292     3.7837 C.3     
  89 C89          -47.0381     7.9648    -0.6538 C.2     
  90 O90          -46.8058     9.1446    -0.5351 O.2     
  91 N91          -45.1735     7.6479     0.8666 N.am    
  92 C92          -46.1974     6.9535     0.0820 C.3     
  93 C93          -47.0882     6.1339     1.0177 C.3     
  94 C94          -46.2589     5.0266     1.6712 C.3     
  95 C95          -47.1497     4.2069     2.6069 C.3     
  96 N96          -46.3556     3.1467     3.2326 N.pl3   
  97 C97          -46.9464     2.2773     4.1188 C.2     
  98 N98          -48.2131     2.3964     4.4022 N.2     
  99 N99          -46.2012     1.2823     4.7060 N.pl3   
 100 O100         -48.0450     7.5550    -1.4412 O.3     
 101 C101         -14.3489    11.7644    16.2197 C.2     
 102 O102         -14.5261    12.9287    15.9298 O.2     
 103 C103         -11.2815    17.4946    33.7965 C.3     
 104 C104         -11.6191    17.8813    32.3552 C.3     
 105 C105         -11.6722    16.6216    31.4884 C.3     
 106 C106         -12.0098    17.0083    30.0471 C.3     
 107 C107         -12.0629    15.7486    29.1802 C.3     
 108 C108         -12.4005    16.1353    27.7389 C.3     
 109 C109         -12.4536    14.8756    26.8720 C.3     
 110 C110         -12.7912    15.2622    25.4307 C.3     
 111 C111         -12.8443    14.0026    24.5639 C.3     
 112 C112         -13.1819    14.3892    23.1226 C.3     
 113 C113         -13.2350    13.1296    22.2557 C.3     
 114 C114         -13.5726    13.5162    20.8144 C.3     
 115 C115         -13.6257    12.2566    19.9476 C.3     
 116 C116         -13.9633    12.6432    18.5062 C.3     
 117 C117         -14.0164    11.3836    17.6394 C.3     
 118 H118         -14.3078     9.8800    15.5041 H       
 119 H119         -15.4621    12.0258    13.8945 H       
 120 H120         -13.7159    11.7531    12.1042 H       
 121 H121         -12.5734    12.6295    14.7928 H       
 122 H122         -12.0678    13.1897    13.1808 H       
 123 H123         -13.6784    13.6168    13.8067 H       
 124 H124         -12.8832     9.5316    12.8254 H       
 125 H125         -11.5567    10.7157    12.7445 H       
 126 H126         -12.2447    10.2563    14.3205 H       
 127 H127         -16.1956    11.0917    11.6833 H       
 128 H128         -15.9480     8.1935    11.4258 H       
 129 H129         -18.6462     9.5637    11.8176 H       
 130 H130         -18.4303     7.8803    11.2811 H       
 131 H131         -17.2069     7.3694    13.3765 H       
 132 H132         -17.4228     9.0528    13.9130 H       
 133 H133         -19.8841     8.7622    13.8344 H       
 134 H134         -19.6682     7.0788    13.2979 H       
 135 H135         -18.2251     7.4397    15.6987 H       
 136 H136         -22.1747     6.8565    15.9394 H       
 137 H137         -19.2120     6.6678    17.7237 H       
 138 H138         -20.8725     6.4272    17.8105 H       
 139 H139         -16.1447     9.2093     7.0744 H       
 140 H140         -17.6662     7.1237     6.0335 H       
 141 H141         -15.9264     6.9680     6.4436 H       
 142 H142         -18.3629     6.2106     8.1529 H       
 143 H143         -16.8699     5.2589     7.8535 H       
 144 H144         -15.5264     6.7137     9.2232 H       
 145 H145         -17.0675     6.6986    10.1342 H       
 146 H146         -18.0799     9.2913     5.2095 H       
 147 H147         -20.6827     9.8138     6.4262 H       
 148 H148         -20.7534    12.1622     5.5924 H       
 149 H149         -18.4210    11.5612     7.4674 H       
 150 H150         -19.2654    13.1220     7.3282 H       
 151 H151         -20.1302    11.6943     7.9464 H       
 152 H152         -17.7703    11.7496     5.1011 H       
 153 H153         -19.0047    11.8467     3.8225 H       
 154 H154         -18.6852    13.2572     4.8600 H       
 155 H155         -22.3303    10.3994     4.5985 H       
 156 H156         -21.3042    10.0684     1.8847 H       
 157 H157         -22.8343     8.1875     1.3654 H       
 158 H158         -21.6600     7.7276     2.6214 H       
 159 H159         -23.3357     8.1241     3.0721 H       
 160 H160         -23.4744    10.1210     0.3264 H       
 161 H161         -25.0596    12.3692     1.3022 H       
 162 H162         -25.1463    10.7763    -1.2989 H       
 163 H163         -26.1332    12.2180    -0.9589 H       
 164 H164         -24.6514    12.8045    -3.0756 H       
 165 H165         -23.2296    13.6177    -2.7016 H       
 166 H166         -27.6499    12.0209     0.6454 H       
 167 H167         -28.5201     9.3085     1.2881 H       
 168 H168         -29.1317    11.6613     3.1340 H       
 169 H169         -29.8198    10.0257     3.2743 H       
 170 H170         -28.0764    10.2823     3.5250 H       
 171 H171         -31.1907     9.5332     1.5712 H       
 172 H172         -32.2175    11.7317    -0.0534 H       
 173 H173         -32.3039     8.8313    -0.9964 H       
 174 H174         -33.2490    10.1565    -1.7168 H       
 175 H175         -31.1504    11.3710    -2.2360 H       
 176 H176         -30.2053    10.0458    -1.5155 H       
 177 H177         -31.1471     8.4686    -3.1810 H       
 178 H178         -32.0923     9.7938    -3.9015 H       
 179 H179         -29.3746    10.5612    -3.8562 H       
 180 H180         -28.7025     9.3062    -7.0464 H       
 181 H181         -31.5265     8.2022    -5.3722 H       
 182 H182         -30.6426     8.0598    -6.7938 H       
 183 H183         -34.8105    11.0239    -0.4797 H       
 184 H184         -35.8162     9.6291     1.8853 H       
 185 H185         -35.2965    11.9333     2.7041 H       
 186 H186         -36.3598    12.5991     1.4415 H       
 187 H187         -38.2534    11.2504     2.3871 H       
 188 H188         -36.8306     9.4881     3.4357 H       
 189 H189         -36.2555    10.6826     4.6234 H       
 190 H190         -37.9700    10.2052     4.6000 H       
 191 H191         -37.9081    13.6114     3.0619 H       
 192 H192         -38.5585    12.6499     4.4113 H       
 193 H193         -36.8313    13.0786     4.3752 H       
 194 H194         -38.1487     9.1191     1.6322 H       
 195 H195         -39.5400    10.3612    -0.6148 H       
 196 H196         -38.9421     7.3708    -0.5215 H       
 197 H197         -40.1126     8.1331    -1.6247 H       
 198 H198         -38.3036     9.5401    -2.5717 H       
 199 H199         -37.1331     8.7778    -1.4685 H       
 200 H200         -37.6178     6.5671    -2.4818 H       
 201 H201         -38.7883     7.3295    -3.5850 H       
 202 H202         -36.3093     8.6535    -3.8643 H       
 203 H203         -36.8073     5.1611    -5.7491 H       
 204 H204         -34.9355     8.0752    -5.7213 H       
 205 H205         -35.1558     6.6048    -6.5036 H       
 206 H206         -41.9008     9.0653    -0.7133 H       
 207 H207         -42.6528     8.0914     1.9350 H       
 208 H208         -43.7450    10.6991     0.7879 H       
 209 H209         -44.4402     9.8395     2.1829 H       
 210 H210         -41.5555    10.8187     2.0142 H       
 211 H211         -43.9609    11.9603     3.5067 H       
 212 H212         -42.2864    12.5508     3.6310 H       
 213 H213         -43.1704    12.6987     2.0932 H       
 214 H214         -43.2283     9.7127     4.3154 H       
 215 H215         -41.9158     8.8499     3.4779 H       
 216 H216         -41.5537    10.3032     4.4397 H       
 217 H217         -45.3337     7.8511     1.8014 H       
 218 H218         -45.7166     6.2893    -0.6361 H       
 219 H219         -47.4991     6.7840     1.7902 H       
 220 H220         -47.9028     5.6887     0.4464 H       
 221 H221         -45.8480     4.3764     0.8988 H       
 222 H222         -45.4443     5.4718     2.2425 H       
 223 H223         -47.5606     4.8570     3.3793 H       
 224 H224         -47.9642     3.7617     2.0356 H       
 225 H225         -45.4130     3.0580     3.0217 H       
 226 H226         -48.6299     1.7830     5.0274 H       
 227 H227         -45.2586     1.1937     4.4951 H       
 228 H228         -46.6181     0.6689     5.3312 H       
 229 H229         -48.5562     8.2405    -1.8927 H       
 230 H230         -10.3128    16.9954    33.8214 H       
 231 H231         -11.2437    18.3920    34.4141 H       
 232 H232         -12.0474    16.8210    34.1810 H       
 233 H233         -12.5878    18.3805    32.3304 H       
 234 H234         -10.8533    18.5549    31.9708 H       
 235 H235         -10.7035    16.1224    31.5132 H       
 236 H236         -12.4381    15.9480    31.8728 H       
 237 H237         -12.9785    17.5075    30.0222 H       
 238 H238         -11.2440    17.6819    29.6626 H       
 239 H239         -11.0942    15.2494    29.2051 H       
 240 H240         -12.8288    15.0750    29.5646 H       
 241 H241         -13.3692    16.6345    27.7140 H       
 242 H242         -11.6347    16.8089    27.3545 H       
 243 H243         -11.4849    14.3764    26.8969 H       
 244 H244         -13.2195    14.2020    27.2565 H       
 245 H245         -13.7599    15.7615    25.4059 H       
 246 H246         -12.0254    15.9359    25.0463 H       
 247 H247         -11.8756    13.5034    24.5887 H       
 248 H248         -13.6101    13.3290    24.9483 H       
 249 H249         -14.1506    14.8885    23.0977 H       
 250 H250         -12.4161    15.0629    22.7381 H       
 251 H251         -12.2663    12.6304    22.2806 H       
 252 H252         -14.0008    12.4560    22.6401 H       
 253 H253         -14.5413    14.0154    20.7895 H       
 254 H254         -12.8068    14.1899    20.4300 H       
 255 H255         -12.6570    11.7574    19.9724 H       
 256 H256         -14.3915    11.5830    20.3320 H       
 257 H257         -14.9320    13.1424    18.4814 H       
 258 H258         -13.1974    13.3169    18.1218 H       
 259 H259         -14.7822    10.7100    18.0238 H       
 260 H260         -13.0477    10.8844    17.6642 H       
@<TRIPOS>BOND
   1    1    2 2
   2    1    4 1
   3    1   10 am
   4    3  101 am
   5    3    4 1
   6    3  118 1
   7    4    5 1
   8    4  119 1
   9    5    6 1
  10    5    7 1
  11    5  120 1
  12    6  121 1
  13    6  122 1
  14    6  123 1
  15    7  124 1
  16    7  125 1
  17    7  126 1
  18    8    9 2
  19    8   11 1
  20    8   21 am
  21   10   11 1
  22   10  127 1
  23   11   12 1
  24   11  128 1
  25   12   13 1
  26   12  129 1
  27   12  130 1
  28   13   14 1
  29   13  131 1
  30   13  132 1
  31   14   15 1
  32   14  133 1
  33   14  134 1
  34   15   16 1
  35   15  135 1
  36   16   17 2
  37   16   18 1
  38   17  136 1
  39   18  137 1
  40   18  138 1
  41   19   20 2
  42   19   28 am
  43   19   22 1
  44   21   22 1
  45   21   25 1
  46   22   23 1
  47   22  139 1
  48   23   24 1
  49   23  140 1
  50   23  141 1
  51   24   25 1
  52   24  142 1
  53   24  143 1
  54   25  144 1
  55   25  145 1
  56   26   27 2
  57   26   29 1
  58   26   35 am
  59   28   29 1
  60   28  146 1
  61   29   30 1
  62   29  147 1
  63   30   31 1
  64   30   32 1
  65   30  148 1
  66   31  149 1
  67   31  150 1
  68   31  151 1
  69   32  152 1
  70   32  153 1
  71   32  154 1
  72   33   34 2
  73   33   36 1
  74   33   40 am
  75   35   36 1
  76   35  155 1
  77   36   37 1
  78   36  156 1
  79   37  157 1
  80   37  158 1
  81   37  159 1
  82   38   39 2
  83   38   41 1
  84   38   48 am
  85   40   41 1
  86   40  160 1
  87   41   42 1
  88   41  161 1
  89   42   43 1
  90   42  162 1
  91   42  163 1
  92   43   44 2
  93   43   45 am
  94   45  164 1
  95   45  165 1
  96   46   47 2
  97   46   49 1
  98   46   53 am
  99   48   49 1
 100   48  166 1
 101   49   50 1
 102   49  167 1
 103   50  168 1
 104   50  169 1
 105   50  170 1
 106   51   52 2
 107   51   54 1
 108   51   64 am
 109   53   54 1
 110   53  171 1
 111   54   55 1
 112   54  172 1
 113   55   56 1
 114   55  173 1
 115   55  174 1
 116   56   57 1
 117   56  175 1
 118   56  176 1
 119   57   58 1
 120   57  177 1
 121   57  178 1
 122   58   59 1
 123   58  179 1
 124   59   60 2
 125   59   61 1
 126   60  180 1
 127   61  181 1
 128   61  182 1
 129   62   63 2
 130   62   65 1
 131   62   72 am
 132   64   65 1
 133   64  183 1
 134   65   66 1
 135   65  184 1
 136   66   67 1
 137   66  185 1
 138   66  186 1
 139   67   68 1
 140   67   69 1
 141   67  187 1
 142   68  188 1
 143   68  189 1
 144   68  190 1
 145   69  191 1
 146   69  192 1
 147   69  193 1
 148   70   71 2
 149   70   73 1
 150   70   83 am
 151   72   73 1
 152   72  194 1
 153   73   74 1
 154   73  195 1
 155   74   75 1
 156   74  196 1
 157   74  197 1
 158   75   76 1
 159   75  198 1
 160   75  199 1
 161   76   77 1
 162   76  200 1
 163   76  201 1
 164   77   78 1
 165   77  202 1
 166   78   79 2
 167   78   80 1
 168   79  203 1
 169   80  204 1
 170   80  205 1
 171   81   82 2
 172   81   84 1
 173   81   91 am
 174   83   84 1
 175   83  206 1
 176   84   85 1
 177   84  207 1
 178   85   86 1
 179   85  208 1
 180   85  209 1
 181   86   87 1
 182   86   88 1
 183   86  210 1
 184   87  211 1
 185   87  212 1
 186   87  213 1
 187   88  214 1
 188   88  215 1
 189   88  216 1
 190   89   90 2
 191   89   92 1
 192   89  100 1
 193   91   92 1
 194   91  217 1
 195   92   93 1
 196   92  218 1
 197   93   94 1
 198   93  219 1
 199   93  220 1
 200   94   95 1
 201   94  221 1
 202   94  222 1
 203   95   96 1
 204   95  223 1
 205   95  224 1
 206   96   97 1
 207   96  225 1
 208   97   98 2
 209   97   99 1
 210   98  226 1
 211   99  227 1
 212   99  228 1
 213  100  229 1
 214  101  102 2
 215  101  117 1
 216  103  104 1
 217  103  230 1
 218  103  231 1
 219  103  232 1
 220  104  105 1
 221  104  233 1
 222  104  234 1
 223  105  106 1
 224  105  235 1
 225  105  236 1
 226  106  107 1
 227  106  237 1
 228  106  238 1
 229  107  108 1
 230  107  239 1
 231  107  240 1
 232  108  109 1
 233  108  241 1
 234  108  242 1
 235  109  110 1
 236  109  243 1
 237  109  244 1
 238  110  111 1
 239  110  245 1
 240  110  246 1
 241  111  112 1
 242  111  247 1
 243  111  248 1
 244  112  113 1
 245  112  249 1
 246  112  250 1
 247  113  114 1
 248  113  251 1
 249  113  252 1
 250  114  115 1
 251  114  253 1
 252  114  254 1
 253  115  116 1
 254  115  255 1
 255  115  256 1
 256  116  117 1
 257  116  257 1
 258  116  258 1
 259  117  259 1
 260  117  260 1

#	End of record

