#	Name: ASD00450040
#	Creating user name:	WinNT
#	Creation time:	15. 06. 2019 18:36

#	Modifying user name:	WinNT
#	Modification time:	15. 06. 2019 18:36

#	Program:	/corina/corina34_cracker 3.40 0067  02.08.2006

@<TRIPOS>MOLECULE
ASD00450040
  52   54    0    0    0
SMALL
NO_CHARGES


@<TRIPOS>ATOM
   1 C1            -0.2341     1.2199    -0.1546 C.ar    
   2 C2            -0.4843    -0.1611    -0.1898 C.ar    
   3 C3             0.5315    -1.0356    -0.5346 C.ar    
   4 C4             1.7934    -0.5530    -0.8448 C.ar    
   5 C5             2.0522     0.8064    -0.8136 C.ar    
   6 C6             1.0482     1.7000    -0.4706 C.ar    
   7 C7            -1.3079     2.1577     0.2044 C.2     
   8 O8            -1.4787     2.4703     1.3676 O.2     
   9 N9            -2.1030     2.6711    -0.7551 N.am    
  10 N10            1.3094     3.0642    -0.4397 N.pl3   
  11 C11            2.6056     3.5225    -0.1812 C.ar    
  12 C12            2.9791     4.8081    -0.5602 C.ar    
  13 C13            3.5203     2.6978     0.4591 C.ar    
  14 C14            4.8000     3.1531     0.7131 C.ar    
  15 C15            5.1710     4.4292     0.3305 C.ar    
  16 C16            4.2610     5.2571    -0.3029 C.ar    
  17 F17            2.7778    -1.4157    -1.1795 F       
  18 F18            2.0907     5.6160    -1.1790 F       
  19 I19            7.1127     5.1135     0.7186 I       
  20 O20           -1.7178    -0.6369     0.1136 O.3     
  21 C21           -1.8821    -1.9845     0.1857 C.ar    
  22 C22           -1.7803    -2.6310     1.4091 C.ar    
  23 C23           -1.9470    -3.9997     1.4829 C.ar    
  24 C24           -2.2172    -4.7290     0.3326 C.ar    
  25 C25           -2.1572    -2.7120    -0.9634 C.ar    
  26 C26           -2.3194    -4.0813    -0.8915 C.ar    
  27 N27           -2.3860    -6.1176     0.4068 N.am    
  28 C28           -3.0134    -6.6645     1.4669 C.2     
  29 C29           -3.2763    -8.1479     1.5040 C.3     
  30 C30           -3.9954    -8.5060     2.8062 C.3     
  31 C31           -4.1526    -8.5406     0.3129 C.3     
  32 O32           -3.3665    -5.9627     2.3910 O.2     
  33 H33            0.3404    -2.0982    -0.5616 H       
  34 H34            3.0387     1.1724    -1.0569 H       
  35 H35           -1.9668     2.4219    -1.6826 H       
  36 H36           -2.8114     3.2899    -0.5182 H       
  37 H37            0.5929     3.6988    -0.5974 H       
  38 H38            3.2319     1.7012     0.7588 H       
  39 H39            5.5114     2.5114     1.2116 H       
  40 H40            4.5524     6.2547    -0.5965 H       
  41 H41           -1.5702    -2.0637     2.3037 H       
  42 H42           -1.8671    -4.5029     2.4351 H       
  43 H43           -2.2404    -2.2077    -1.9147 H       
  44 H44           -2.5291    -4.6481    -1.7866 H       
  45 H45           -2.0514    -6.6856    -0.3048 H       
  46 H46           -2.3298    -8.6861     1.4518 H       
  47 H47           -4.9418    -7.9679     2.8584 H       
  48 H48           -4.1855    -9.5790     2.8331 H       
  49 H49           -3.3711    -8.2262     3.6548 H       
  50 H50           -5.0990    -8.0025     0.3651 H       
  51 H51           -3.6403    -8.2855    -0.6148 H       
  52 H52           -4.3427    -9.6136     0.3398 H       
@<TRIPOS>BOND
   1    1    2 ar
   2    1    6 ar
   3    1    7 1
   4    2    3 ar
   5    2   20 1
   6    3    4 ar
   7    3   33 1
   8    4    5 ar
   9    4   17 1
  10    5    6 ar
  11    5   34 1
  12    6   10 1
  13    7    8 2
  14    7    9 am
  15    9   35 1
  16    9   36 1
  17   10   11 1
  18   10   37 1
  19   11   13 ar
  20   11   12 ar
  21   12   16 ar
  22   12   18 1
  23   13   14 ar
  24   13   38 1
  25   14   15 ar
  26   14   39 1
  27   15   16 ar
  28   15   19 1
  29   16   40 1
  30   20   21 1
  31   21   22 ar
  32   21   25 ar
  33   22   23 ar
  34   22   41 1
  35   23   24 ar
  36   23   42 1
  37   24   26 ar
  38   24   27 1
  39   25   26 ar
  40   25   43 1
  41   26   44 1
  42   27   28 am
  43   27   45 1
  44   28   29 1
  45   28   32 2
  46   29   30 1
  47   29   31 1
  48   29   46 1
  49   30   47 1
  50   30   48 1
  51   30   49 1
  52   31   50 1
  53   31   51 1
  54   31   52 1

#	End of record

