#	Name: ASD01882275
#	Creating user name:	WinNT
#	Creation time:	15. 06. 2019 19:44

#	Modifying user name:	WinNT
#	Modification time:	15. 06. 2019 19:44

#	Program:	/corina/corina34_cracker 3.40 0067  02.08.2006

@<TRIPOS>MOLECULE
ASD01882275
  31   32    0    0    0
SMALL
NO_CHARGES


@<TRIPOS>ATOM
   1 N1            -0.0178     1.4608     0.0101 N.pl3   
   2 C2            -1.2983    -2.0661     0.5374 C.3     
   3 C3            -1.2933    -0.5375     0.6216 C.3     
   4 C4             0.0021    -0.0041     0.0020 C.3     
   5 C5             0.1099    -0.5071    -1.4408 C.3     
   6 C6             0.0507    -2.0369    -1.4453 C.3     
   7 O7            -1.1640    -2.4671    -0.8276 O.3     
   8 C8             1.1826     2.1758     0.0025 C.ar    
   9 C9             1.1653     3.5649     0.0101 C.ar    
  10 C10            2.3532     4.2688     0.0025 C.ar    
  11 C11            3.5601     3.5919    -0.0127 C.ar    
  12 C12            3.5804     2.2087    -0.0208 C.ar    
  13 C13            2.3954     1.4992    -0.0070 C.ar    
  14 C14           -0.1486     4.3028     0.0261 C.3     
  15 F15            0.0907     5.6811     0.0313 F       
  16 F16           -0.8886     3.9622    -1.1112 F       
  17 F17           -0.8676     3.9499     1.1732 F       
  18 Br18           5.1847     4.5596    -0.0231 Br      
  19 H19           -0.8643     1.9343     0.0167 H       
  20 H20           -0.4657    -2.4648     1.1170 H       
  21 H21           -2.2368    -2.4491     0.9381 H       
  22 H22           -2.1488    -0.1398     0.0758 H       
  23 H23           -1.3512    -0.2300     1.6657 H       
  24 H24            0.8558    -0.3603     0.5786 H       
  25 H25           -0.7173    -0.1088    -2.0282 H       
  26 H26            1.0555    -0.1780    -1.8716 H       
  27 H27            0.0840    -2.3989    -2.4729 H       
  28 H28            0.9009    -2.4353    -0.8917 H       
  29 H29            2.3404     5.3487     0.0080 H       
  30 H30            4.5238     1.6831    -0.0334 H       
  31 H31            2.4119     0.4193    -0.0085 H       
@<TRIPOS>BOND
   1    1    4 1
   2    1    8 1
   3    1   19 1
   4    2    3 1
   5    2    7 1
   6    2   20 1
   7    2   21 1
   8    3    4 1
   9    3   22 1
  10    3   23 1
  11    4    5 1
  12    4   24 1
  13    5    6 1
  14    5   25 1
  15    5   26 1
  16    6    7 1
  17    6   27 1
  18    6   28 1
  19    8    9 ar
  20    8   13 ar
  21    9   10 ar
  22    9   14 1
  23   10   11 ar
  24   10   29 1
  25   11   12 ar
  26   11   18 1
  27   12   13 ar
  28   12   30 1
  29   13   31 1
  30   14   15 1
  31   14   16 1
  32   14   17 1

#	End of record

