#	Name: ASD01811747
#	Creating user name:	WinNT
#	Creation time:	15. 06. 2019 19:27

#	Modifying user name:	WinNT
#	Modification time:	15. 06. 2019 19:27

#	Program:	/corina/corina34_cracker 3.40 0067  02.08.2006

@<TRIPOS>MOLECULE
ASD01811747
  57   61    0    0    0
SMALL
NO_CHARGES


@<TRIPOS>ATOM
   1 C1            -0.0167     1.3820     0.0096 C.ar    
   2 C2             0.0021    -0.0041     0.0020 C.ar    
   3 C3             1.2092    -0.6837    -0.0132 C.ar    
   4 C4             2.3994     0.0122    -0.0208 C.ar    
   5 C5             2.3881     1.4088    -0.0132 C.ar    
   6 C6             1.1653     2.0846     0.0021 C.ar    
   7 Cl7           -1.4906    -0.8904     0.0121 Cl      
   8 C8             1.2215    -2.1906    -0.0209 C.3     
   9 C9             0.9925    -2.7020     1.3781 C.ar    
  10 C10           -0.2953    -2.9444     1.8210 C.ar    
  11 C11           -0.5106    -3.4132     3.1012 C.ar    
  12 C12            0.5718    -3.6422     3.9477 C.ar    
  13 C13            1.8667    -3.3964     3.4965 C.ar    
  14 C14            2.0711    -2.9326     2.2127 C.ar    
  15 C15            0.3462    -4.1460     5.3260 C.2     
  16 C16           -0.9011    -4.4367     5.9121 C.2     
  17 N17           -0.6888    -4.8556     7.1315 N.2     
  18 N18            0.6908    -4.8491     7.3703 N.pl3   
  19 C19            1.3098    -4.4173     6.2530 C.2     
  20 C20            1.3486    -5.2479     8.6171 C.3     
  21 C21            3.4703     2.4108    -0.0177 C.2     
  22 N22            2.9562     3.6527    -0.0058 N.am    
  23 C23            1.4920     3.5571     0.0074 C.3     
  24 O24            4.6577     2.1507    -0.0297 O.2     
  25 C25            3.7300     4.8967    -0.0053 C.3     
  26 C26            4.6004     4.9564    -1.2622 C.3     
  27 C27            5.4086     6.2555    -1.2617 C.3     
  28 C28            6.3018     6.2999    -0.0203 C.3     
  29 C29            5.4315     6.2402     1.2367 C.3     
  30 C30            4.6233     4.9411     1.2361 C.3     
  31 O31            3.7661     4.9149    -2.4216 O.3     
  32 H32           -0.9590     1.9097     0.0170 H       
  33 H33            3.3383    -0.5214    -0.0323 H       
  34 H34            0.4308    -2.5570    -0.6756 H       
  35 H35            2.1866    -2.5442    -0.3835 H       
  36 H36           -1.1338    -2.7662     1.1641 H       
  37 H37           -1.5164    -3.6019     3.4462 H       
  38 H38            2.7093    -3.5723     4.1488 H       
  39 H39            3.0745    -2.7417     1.8619 H       
  40 H40           -1.8650    -4.3313     5.4367 H       
  41 H41            2.3750    -4.3006     6.1186 H       
  42 H42            1.5760    -6.3133     8.5833 H       
  43 H43            2.2729    -4.6827     8.7371 H       
  44 H44            0.6864    -5.0442     9.4586 H       
  45 H45            1.0773     4.0360    -0.8796 H       
  46 H46            1.0941     4.0259     0.9074 H       
  47 H47            3.0494     5.7480     0.0062 H       
  48 H48            5.2810     4.1051    -1.2737 H       
  49 H49            6.0286     6.2980    -2.1571 H       
  50 H50            4.7280     7.1068    -1.2502 H       
  51 H51            6.9824     5.4486    -0.0317 H       
  52 H52            6.8776     7.2254    -0.0199 H       
  53 H53            6.0679     6.2718     2.1211 H       
  54 H54            4.7509     7.0915     1.2481 H       
  55 H55            4.0033     4.8985     2.1316 H       
  56 H56            5.3039     4.0897     1.2247 H       
  57 H57            4.2518     4.9491    -3.2571 H       
@<TRIPOS>BOND
   1    1    2 ar
   2    1    6 ar
   3    1   32 1
   4    2    3 ar
   5    2    7 1
   6    3    4 ar
   7    3    8 1
   8    4    5 ar
   9    4   33 1
  10    5    6 ar
  11    5   21 1
  12    6   23 1
  13    8    9 1
  14    8   34 1
  15    8   35 1
  16    9   10 ar
  17    9   14 ar
  18   10   11 ar
  19   10   36 1
  20   11   12 ar
  21   11   37 1
  22   12   13 ar
  23   12   15 1
  24   13   14 ar
  25   13   38 1
  26   14   39 1
  27   15   16 1
  28   15   19 2
  29   16   17 2
  30   16   40 1
  31   17   18 1
  32   18   19 1
  33   18   20 1
  34   19   41 1
  35   20   42 1
  36   20   43 1
  37   20   44 1
  38   21   22 am
  39   21   24 2
  40   22   23 1
  41   22   25 1
  42   23   45 1
  43   23   46 1
  44   25   26 1
  45   25   30 1
  46   25   47 1
  47   26   27 1
  48   26   31 1
  49   26   48 1
  50   27   28 1
  51   27   49 1
  52   27   50 1
  53   28   29 1
  54   28   51 1
  55   28   52 1
  56   29   30 1
  57   29   53 1
  58   29   54 1
  59   30   55 1
  60   30   56 1
  61   31   57 1

#	End of record

