#	Name: ASD00841913
#	Creating user name:	WinNT
#	Creation time:	15. 06. 2019 18:43

#	Modifying user name:	WinNT
#	Modification time:	15. 06. 2019 18:43

#	Program:	/corina/corina34_cracker 3.40 0067  02.08.2006

@<TRIPOS>MOLECULE
ASD00841913
 101  106    0    0    0
SMALL
NO_CHARGES


@<TRIPOS>ATOM
   1 C1             0.8881     1.5111    -0.6886 C.ar    
   2 C2             1.2199     0.1722    -0.8349 C.ar    
   3 C3             1.1988    -0.6699     0.2677 C.ar    
   4 C4             0.8476    -0.1733     1.5078 C.ar    
   5 C5             0.5168     1.1618     1.6510 C.ar    
   6 C6             0.5375     2.0029     0.5541 C.ar    
   7 C7             1.5582    -2.1251     0.1122 C.3     
   8 C8             1.3409    -2.8670     1.4138 C.2     
   9 C9             0.7372    -2.7615    -1.0111 C.3     
  10 C10           -0.7296    -2.5303    -0.7543 C.2     
  11 N11           -1.6508    -3.0645    -1.5804 N.am    
  12 O12           -1.0812    -1.8635     0.1958 O.2     
  13 C13           -3.0768    -2.7522    -1.4136 C.3     
  14 C14           -3.8601    -4.0646    -1.3100 C.3     
  15 C15           -3.5462    -4.9388    -2.5263 C.3     
  16 C16           -2.0519    -5.2686    -2.5477 C.3     
  17 C17           -1.2475    -3.9654    -2.6688 C.3     
  18 N18           -4.3211    -6.1842    -2.4470 N.3     
  19 C19           -4.1363    -6.9975    -3.6570 C.3     
  20 C20           -4.8941    -8.3181    -3.5015 C.3     
  21 N21           -6.3182    -8.0385    -3.2709 N.3     
  22 C22           -6.5031    -7.2252    -2.0609 C.3     
  23 C23           -5.7453    -5.9046    -2.2164 C.3     
  24 C24           -7.0932    -9.2839    -3.1915 C.3     
  25 O25            0.2880    -2.9972     2.0017 O.2     
  26 N26            2.5336    -3.3540     1.7957 N.am    
  27 C27            3.0376    -2.2794    -0.1564 C.ar    
  28 C28            3.5501    -3.0271     0.8966 C.ar    
  29 C29            3.8547    -1.8390    -1.1730 C.ar    
  30 C30            5.2061    -2.1409    -1.1535 C.ar    
  31 C31            5.7297    -2.8860    -0.1089 C.ar    
  32 C32            4.9100    -3.3282     0.9118 C.ar    
  33 Cl33           6.2405    -1.5884    -2.4334 Cl      
  34 F34            7.0479    -3.1814    -0.0884 F       
  35 C35            2.5422    -5.9351     2.7508 C.ar    
  36 C36            1.2958    -6.3850     2.3394 C.ar    
  37 C37            3.6062    -6.8140     2.8231 C.ar    
  38 C38            3.4320    -8.1423     2.4857 C.ar    
  39 C39            2.1872    -8.5974     2.0736 C.ar    
  40 C40            1.1183    -7.7178     2.0006 C.ar    
  41 O41            2.0163    -9.9042     1.7422 O.3     
  42 O42            0.2499    -5.5203     2.2689 O.3     
  43 C43            3.1612   -10.7536     1.8413 C.3     
  44 C44           -1.0041    -6.0527     1.8373 C.3     
  45 C45           -2.0527    -4.9388     1.8213 C.3     
  46 C46           -8.5107    -8.9726    -2.7073 C.3     
  47 C47           -9.3179   -10.2697    -2.6246 C.3     
  48 O48            1.5647    -0.3141    -2.0562 O.3     
  49 C49            1.9807    -0.1058    -4.4277 C.3     
  50 C50            1.4563     0.5809    -3.1650 C.3     
  51 S51            2.7703    -4.2400     3.1745 S.o2    
  52 O52            4.1419    -4.0928     3.5155 O.2     
  53 O53            1.7093    -3.9006     4.0567 O.2     
  54 H54            0.9081     2.1695    -1.5444 H       
  55 H55            0.8310    -0.8283     2.3664 H       
  56 H56            0.2418     1.5480     2.6213 H       
  57 H57            0.2787     3.0452     0.6684 H       
  58 H58            1.0147    -2.3110    -1.9640 H       
  59 H59            0.9358    -3.8328    -1.0442 H       
  60 H60           -3.2191    -2.1689    -0.5039 H       
  61 H61           -3.4293    -2.1832    -2.2739 H       
  62 H62           -3.5707    -4.5901    -0.3999 H       
  63 H63           -4.9283    -3.8495    -1.2825 H       
  64 H64           -3.8128    -4.4028    -3.4372 H       
  65 H65           -1.7796    -5.7827    -1.6260 H       
  66 H66           -1.8331    -5.9104    -3.4011 H       
  67 H67           -1.4521    -3.4979    -3.6320 H       
  68 H68           -0.1829    -4.1839    -2.5851 H       
  69 H69           -4.5219    -6.4566    -4.5211 H       
  70 H70           -3.0751    -7.2018    -3.7992 H       
  71 H71           -4.7822    -8.9107    -4.4094 H       
  72 H72           -4.4902    -8.8715    -2.6536 H       
  73 H73           -7.5643    -7.0210    -1.9186 H       
  74 H74           -6.1175    -7.7661    -1.1967 H       
  75 H75           -5.8572    -5.3120    -1.3084 H       
  76 H76           -6.1492    -5.3512    -3.0642 H       
  77 H77           -7.1394    -9.7465    -4.1774 H       
  78 H78           -6.6121    -9.9673    -2.4917 H       
  79 H79            3.4422    -1.2589    -1.9853 H       
  80 H80            5.3245    -3.9082     1.7231 H       
  81 H81            4.5756    -6.4619     3.1436 H       
  82 H82            4.2652    -8.8272     2.5423 H       
  83 H83            0.1489    -8.0700     1.6805 H       
  84 H84            3.9459   -10.3843     1.1810 H       
  85 H85            3.5232   -10.7571     2.8694 H       
  86 H86            2.8878   -11.7675     1.5489 H       
  87 H87           -0.8975    -6.4659     0.8343 H       
  88 H88           -1.3200    -6.8393     2.5226 H       
  89 H89           -3.0092    -5.3449     1.4921 H       
  90 H90           -2.1593    -4.5256     2.8243 H       
  91 H91           -1.7368    -4.1522     1.1360 H       
  92 H92           -8.4645    -8.5100    -1.7214 H       
  93 H93           -8.9919    -8.2892    -3.4070 H       
  94 H94           -9.3641   -10.7323    -3.6105 H       
  95 H95           -8.8367   -10.9531    -1.9249 H       
  96 H96          -10.3277   -10.0479    -2.2797 H       
  97 H97            1.9798     0.6044    -5.2545 H       
  98 H98            2.9969    -0.4594    -4.2536 H       
  99 H99            1.3390    -0.9516    -4.6745 H       
 100 H100           0.4116     0.8566    -3.3086 H       
 101 H101           2.0448     1.4769    -2.9676 H       
@<TRIPOS>BOND
   1    1    2 ar
   2    1    6 ar
   3    1   54 1
   4    2    3 ar
   5    2   48 1
   6    3    4 ar
   7    3    7 1
   8    4    5 ar
   9    4   55 1
  10    5    6 ar
  11    5   56 1
  12    6   57 1
  13    7    8 1
  14    7    9 1
  15    7   27 1
  16    8   25 2
  17    8   26 am
  18    9   10 1
  19    9   58 1
  20    9   59 1
  21   10   11 am
  22   10   12 2
  23   11   13 1
  24   11   17 1
  25   13   14 1
  26   13   60 1
  27   13   61 1
  28   14   15 1
  29   14   62 1
  30   14   63 1
  31   15   16 1
  32   15   18 1
  33   15   64 1
  34   16   17 1
  35   16   65 1
  36   16   66 1
  37   17   67 1
  38   17   68 1
  39   18   19 1
  40   18   23 1
  41   19   20 1
  42   19   69 1
  43   19   70 1
  44   20   21 1
  45   20   71 1
  46   20   72 1
  47   21   22 1
  48   21   24 1
  49   22   23 1
  50   22   73 1
  51   22   74 1
  52   23   75 1
  53   23   76 1
  54   24   46 1
  55   24   77 1
  56   24   78 1
  57   26   51 am
  58   26   28 1
  59   27   28 ar
  60   27   29 ar
  61   28   32 ar
  62   29   30 ar
  63   29   79 1
  64   30   31 ar
  65   30   33 1
  66   31   32 ar
  67   31   34 1
  68   32   80 1
  69   35   36 ar
  70   35   37 ar
  71   35   51 1
  72   36   42 1
  73   36   40 ar
  74   37   38 ar
  75   37   81 1
  76   38   39 ar
  77   38   82 1
  78   39   40 ar
  79   39   41 1
  80   40   83 1
  81   41   43 1
  82   42   44 1
  83   43   84 1
  84   43   85 1
  85   43   86 1
  86   44   45 1
  87   44   87 1
  88   44   88 1
  89   45   89 1
  90   45   90 1
  91   45   91 1
  92   46   47 1
  93   46   92 1
  94   46   93 1
  95   47   94 1
  96   47   95 1
  97   47   96 1
  98   48   50 1
  99   49   50 1
 100   49   97 1
 101   49   98 1
 102   49   99 1
 103   50  100 1
 104   50  101 1
 105   51   52 2
 106   51   53 2

#	End of record

