#	Name: ASD08170039
#	Creating user name:	WinNT
#	Creation time:	15. 06. 2019 21:17

#	Modifying user name:	WinNT
#	Modification time:	15. 06. 2019 21:17

#	Program:	/corina/corina34_cracker 3.40 0067  02.08.2006

@<TRIPOS>MOLECULE
ASD08170039
  60   61    0    0    0
SMALL
NO_CHARGES


@<TRIPOS>ATOM
   1 C1             0.2333    -0.8683    -3.7307 C.3     
   2 C2             0.2071    -2.3239    -3.3412 C.2     
   3 C3            -0.9954    -4.2909    -2.7848 C.2     
   4 N4             0.0464    -5.0466    -2.6093 N.2     
   5 N5            -0.1506    -6.2487    -2.2778 N.2     
   6 C6            -1.3847    -6.6179    -2.1429 C.2     
   7 S7            -2.4039    -5.2213    -2.4928 S.3     
   8 C8            -1.8639    -7.9935    -1.7569 C.3     
   9 C9            -1.9872    -8.0821    -0.2345 C.3     
  10 C10           -2.4737    -9.4787     0.1574 C.3     
  11 C11           -2.5970    -9.5673     1.6798 C.3     
  12 C12           -3.0762   -10.9429     2.0658 C.2     
  13 O13            1.2465    -2.9340    -3.2050 O.2     
  14 N14           -0.9712    -2.9477    -3.1442 N.am    
  15 C15            1.6622    -0.4161    -3.8883 C.ar    
  16 C16            2.2877    -0.5175    -5.1169 C.ar    
  17 C17            3.5984    -0.1028    -5.2614 C.ar    
  18 C18            4.2835     0.4139    -4.1776 C.ar    
  19 C19            3.6576     0.5162    -2.9493 C.ar    
  20 C20            2.3455     0.1054    -2.8057 C.ar    
  21 O21           -3.2973   -11.7710     1.2077 O.2     
  22 N22           -3.2590   -11.2530     3.3646 N.am    
  23 H23           -3.0822   -10.5908     4.0509 H       
  24 C24           -3.7249   -12.5904     3.7399 C.3     
  25 C25           -3.8482   -12.6789     5.2623 C.3     
  26 N26           -4.3153   -14.0199     5.6386 N.3     
  27 C27           -3.3099   -15.0391     5.3095 C.3     
  28 C28           -3.9612   -16.4234     5.3303 C.3     
  29 C29           -4.6720   -14.0728     7.0626 C.3     
  30 C30           -6.0284   -13.3973     7.2740 C.3     
  31 H31           -0.2961    -0.7350    -4.6741 H       
  32 H32           -0.2518    -0.2758    -2.9550 H       
  33 H33           -2.8367    -8.1803    -2.2117 H       
  34 H34           -1.1498    -8.7387    -2.1076 H       
  35 H35           -1.0144    -7.8953     0.2203 H       
  36 H36           -2.7013    -7.3369     0.1161 H       
  37 H37           -3.4465    -9.6655    -0.2974 H       
  38 H38           -1.7596   -10.2239    -0.1932 H       
  39 H39           -1.6242    -9.3805     2.1346 H       
  40 H40           -3.3111    -8.8221     2.0305 H       
  41 H41           -1.8025    -2.4597    -3.2531 H       
  42 H42            1.7525    -0.9212    -5.9636 H       
  43 H43            4.0874    -0.1827    -6.2211 H       
  44 H44            5.3077     0.7373    -4.2904 H       
  45 H45            4.1929     0.9195    -2.1024 H       
  46 H46            1.8566     0.1853    -1.8461 H       
  47 H47           -4.6977   -12.7772     3.2851 H       
  48 H48           -3.0108   -13.3355     3.3893 H       
  49 H49           -2.8754   -12.4921     5.7171 H       
  50 H50           -4.5623   -11.9338     5.6130 H       
  51 H51           -2.9050   -14.8429     4.3167 H       
  52 H52           -2.5047   -15.0055     6.0435 H       
  53 H53           -4.2456   -16.6759     6.3518 H       
  54 H54           -4.8485   -16.4169     4.6972 H       
  55 H55           -3.2537   -17.1635     4.9566 H       
  56 H56           -4.7299   -15.1126     7.3843 H       
  57 H57           -3.9125   -13.5534     7.6470 H       
  58 H58           -5.9727   -12.3595     6.9454 H       
  59 H59           -6.7893   -13.9212     6.6955 H       
  60 H60           -6.2897   -13.4299     8.3318 H       
@<TRIPOS>BOND
   1    1    2 1
   2    1   15 1
   3    1   31 1
   4    1   32 1
   5    2   13 2
   6    2   14 am
   7    3    4 2
   8    3    7 1
   9    3   14 1
  10    4    5 1
  11    5    6 2
  12    6    7 1
  13    6    8 1
  14    8    9 1
  15    8   33 1
  16    8   34 1
  17    9   10 1
  18    9   35 1
  19    9   36 1
  20   10   11 1
  21   10   37 1
  22   10   38 1
  23   11   12 1
  24   11   39 1
  25   11   40 1
  26   12   21 2
  27   12   22 am
  28   14   41 1
  29   15   16 ar
  30   15   20 ar
  31   16   17 ar
  32   16   42 1
  33   17   18 ar
  34   17   43 1
  35   18   19 ar
  36   18   44 1
  37   19   20 ar
  38   19   45 1
  39   20   46 1
  40   22   23 1
  41   22   24 1
  42   24   25 1
  43   24   47 1
  44   24   48 1
  45   25   26 1
  46   25   49 1
  47   25   50 1
  48   26   27 1
  49   26   29 1
  50   27   28 1
  51   27   51 1
  52   27   52 1
  53   28   53 1
  54   28   54 1
  55   28   55 1
  56   29   30 1
  57   29   56 1
  58   29   57 1
  59   30   58 1
  60   30   59 1
  61   30   60 1

#	End of record

