#	Name: ASD03320013
#	Creating user name:	WinNT
#	Creation time:	15. 06. 2019 20:35

#	Modifying user name:	WinNT
#	Modification time:	15. 06. 2019 20:35

#	Program:	/corina/corina34_cracker 3.40 0067  02.08.2006

@<TRIPOS>MOLECULE
ASD03320013
  66   70    0    0    0
SMALL
NO_CHARGES


@<TRIPOS>ATOM
   1 C1            -0.9081     4.1451    -0.0713 C.ar    
   2 C2            -1.0350     2.7678     0.1078 C.ar    
   3 C3             0.3414     4.7124    -0.1892 C.ar    
   4 C4             1.4814     3.9081    -0.1295 C.ar    
   5 C5             1.3533     2.5291     0.0498 C.ar    
   6 C6             0.1029     1.9637     0.1676 C.ar    
   7 C7             2.8230     4.5159    -0.2564 C.2     
   8 N8             3.0337     5.5033    -1.1492 N.am    
   9 O9             3.7360     4.1252     0.4445 O.2     
  10 C10           -2.3811     2.1580     0.2352 C.ar    
  11 C11           -2.5207     0.7842     0.4143 C.ar    
  12 C12           -3.8090     0.2616     0.5290 C.ar    
  13 N13           -4.8488     1.0886     0.4635 N.ar    
  14 C14           -4.6745     2.3839     0.2930 C.ar    
  15 N15           -3.4763     2.9178     0.1855 N.ar    
  16 N16           -4.0028    -1.0997     0.7081 N.pl3   
  17 C17           -5.2887    -1.5988     0.9347 C.ar    
  18 C18           -5.6155    -2.8879     0.5343 C.ar    
  19 C19           -6.8869    -3.3781     0.7601 C.ar    
  20 C20           -7.8339    -2.5870     1.3840 C.ar    
  21 C21           -7.5119    -1.3027     1.7836 C.ar    
  22 C22           -6.2410    -0.8084     1.5660 C.ar    
  23 C23            4.3243     6.2047    -1.1981 C.3     
  24 C24            4.8798     6.1100    -2.6245 C.3     
  25 N25            3.8233     6.5042    -3.5670 N.am    
  26 C26            2.5328     5.8028    -3.5182 C.3     
  27 C27            1.9792     5.8936    -2.0955 C.3     
  28 C28            4.0341     7.4916    -4.4599 C.2     
  29 C29            2.9293     7.9513    -5.3281 C.ar    
  30 O30            5.1325     8.0041    -4.5513 O.2     
  31 C31            2.6814     9.3159    -5.4835 C.ar    
  32 C32            1.6487     9.7382    -6.2953 C.ar    
  33 C33            0.8598     8.8124    -6.9543 C.ar    
  34 C34            1.1000     7.4579    -6.8041 C.ar    
  35 C35            2.1331     7.0225    -6.0005 C.ar    
  36 C36            0.2352     6.4565    -7.5255 C.3     
  37 F37           -0.7323     7.1318    -8.2773 F       
  38 F38            1.0301     5.6815    -8.3767 F       
  39 F39           -0.3951     5.6267    -6.5920 F       
  40 C40           -7.2426    -4.7766     0.3255 C.3     
  41 F41           -6.9659    -5.6722     1.3641 F       
  42 F42           -8.6043    -4.8348     0.0100 F       
  43 F43           -6.4878    -5.1211    -0.8009 F       
  44 H44           -1.7900     4.7665    -0.1220 H       
  45 H45            0.4395     5.7789    -0.3282 H       
  46 H46            2.2343     1.9062     0.0958 H       
  47 H47            0.0036     0.8972     0.3063 H       
  48 H48           -1.6548     0.1405     0.4628 H       
  49 H49           -5.5407     3.0270     0.2443 H       
  50 H50           -3.2461    -1.7057     0.6762 H       
  51 H51           -4.8764    -3.5062     0.0466 H       
  52 H52           -8.8273    -2.9727     1.5594 H       
  53 H53           -8.2540    -0.6871     2.2700 H       
  54 H54           -5.9901     0.1944     1.8786 H       
  55 H55            4.1821     7.2515    -0.9295 H       
  56 H56            5.0211     5.7374    -0.5023 H       
  57 H57            5.7329     6.7802    -2.7300 H       
  58 H58            5.1891     5.0851    -2.8294 H       
  59 H59            1.8359     6.2701    -4.2139 H       
  60 H60            2.6750     4.7560    -3.7867 H       
  61 H61            1.1262     5.2231    -1.9914 H       
  62 H62            1.6698     6.9180    -1.8881 H       
  63 H63            3.2963    10.0396    -4.9693 H       
  64 H64            1.4556    10.7939    -6.4162 H       
  65 H65            0.0527     9.1483    -7.5885 H       
  66 H66            2.3195     5.9651    -5.8841 H       
@<TRIPOS>BOND
   1    1    2 ar
   2    1    3 ar
   3    1   44 1
   4    2   10 1
   5    2    6 ar
   6    3    4 ar
   7    3   45 1
   8    4    5 ar
   9    4    7 1
  10    5    6 ar
  11    5   46 1
  12    6   47 1
  13    7    8 am
  14    7    9 2
  15    8   23 1
  16    8   27 1
  17   10   11 ar
  18   10   15 ar
  19   11   12 ar
  20   11   48 1
  21   12   13 ar
  22   12   16 1
  23   13   14 ar
  24   14   15 ar
  25   14   49 1
  26   16   17 1
  27   16   50 1
  28   17   18 ar
  29   17   22 ar
  30   18   19 ar
  31   18   51 1
  32   19   20 ar
  33   19   40 1
  34   20   21 ar
  35   20   52 1
  36   21   22 ar
  37   21   53 1
  38   22   54 1
  39   23   24 1
  40   23   55 1
  41   23   56 1
  42   24   25 1
  43   24   57 1
  44   24   58 1
  45   25   26 1
  46   25   28 am
  47   26   27 1
  48   26   59 1
  49   26   60 1
  50   27   61 1
  51   27   62 1
  52   28   29 1
  53   28   30 2
  54   29   31 ar
  55   29   35 ar
  56   31   32 ar
  57   31   63 1
  58   32   33 ar
  59   32   64 1
  60   33   34 ar
  61   33   65 1
  62   34   35 ar
  63   34   36 1
  64   35   66 1
  65   36   37 1
  66   36   38 1
  67   36   39 1
  68   40   41 1
  69   40   42 1
  70   40   43 1

#	End of record

