#	Name: ASD02038769
#	Creating user name:	WinNT
#	Creation time:	15. 06. 2019 20:17

#	Modifying user name:	WinNT
#	Modification time:	15. 06. 2019 20:17

#	Program:	/corina/corina34_cracker 3.40 0067  02.08.2006

@<TRIPOS>MOLECULE
ASD02038769
  39   41    0    0    0
SMALL
NO_CHARGES


@<TRIPOS>ATOM
   1 C1             1.3106    -0.8011    -0.4476 C.2     
   2 C2             0.0618    -0.0233    -0.2987 C.2     
   3 N3            -1.1174    -0.6616    -0.1623 N.am    
   4 C4            -1.1750    -2.1223    -0.2574 C.3     
   5 C5            -1.1407    -2.7176     1.1267 C.ar    
   6 C6            -2.3416     0.1055     0.0811 C.3     
   7 O7             0.0987     1.1917    -0.2994 O.2     
   8 N8             2.5493    -0.2924    -0.5783 N.2     
   9 C9             3.3750    -1.3024    -0.6829 C.2     
  10 N10            2.6470    -2.4324    -0.6168 N.pl3   
  11 N11            1.4075    -2.1124    -0.4700 N.2     
  12 C12           -2.3197    -3.0741     1.7546 C.ar    
  13 C13            0.0699    -2.9117     1.7649 C.ar    
  14 C14            0.1033    -3.4576     3.0345 C.ar    
  15 C15           -1.0761    -3.8101     3.6672 C.ar    
  16 C16           -2.2893    -3.6200     3.0247 C.ar    
  17 C17           -2.1720     0.9538     1.3452 C.3     
  18 C18           -3.4247     1.8102     1.5475 C.3     
  19 O19           -3.6354     2.6242     0.3920 O.3     
  20 C20           -3.8474     1.8844    -0.8121 C.3     
  21 C21           -2.6116     1.0310    -1.1092 C.3     
  22 Cl22          -3.7700    -4.0612     3.8162 Cl      
  23 F23           -1.0444    -4.3440     4.9078 F       
  24 H24           -2.0975    -2.4178    -0.7572 H       
  25 H25           -0.3202    -2.4832    -0.8294 H       
  26 H26           -3.1806    -0.5782     0.2107 H       
  27 H27            4.4467    -1.2403    -0.8011 H       
  28 H28            2.9969    -3.3357    -0.6672 H       
  29 H29           -3.2647    -2.9260     1.2531 H       
  30 H30            0.9903    -2.6371     1.2712 H       
  31 H31            1.0496    -3.6094     3.5325 H       
  32 H32           -2.0344     0.3004     2.2067 H       
  33 H33           -1.3020     1.6013     1.2353 H       
  34 H34           -4.2879     1.1618     1.6977 H       
  35 H35           -3.2921     2.4475     2.4218 H       
  36 H36           -4.7161     1.2370    -0.6928 H       
  37 H37           -4.0192     2.5751    -1.6376 H       
  38 H38           -1.7505     1.6799    -1.2687 H       
  39 H39           -2.7885     0.4327    -2.0030 H       
@<TRIPOS>BOND
   1    1    2 1
   2    1    8 1
   3    1   11 2
   4    2    3 am
   5    2    7 2
   6    3    4 1
   7    3    6 1
   8    4    5 1
   9    4   24 1
  10    4   25 1
  11    5   12 ar
  12    5   13 ar
  13    6   17 1
  14    6   21 1
  15    6   26 1
  16    8    9 2
  17    9   10 1
  18    9   27 1
  19   10   11 1
  20   10   28 1
  21   12   16 ar
  22   12   29 1
  23   13   14 ar
  24   13   30 1
  25   14   15 ar
  26   14   31 1
  27   15   16 ar
  28   15   23 1
  29   16   22 1
  30   17   18 1
  31   17   32 1
  32   17   33 1
  33   18   19 1
  34   18   34 1
  35   18   35 1
  36   19   20 1
  37   20   21 1
  38   20   36 1
  39   20   37 1
  40   21   38 1
  41   21   39 1

#	End of record

