#	Name: ASD02198412
#	Creating user name:	WinNT
#	Creation time:	15. 06. 2019 20:19

#	Modifying user name:	WinNT
#	Modification time:	15. 06. 2019 20:19

#	Program:	/corina/corina34_cracker 3.40 0067  02.08.2006

@<TRIPOS>MOLECULE
ASD02198412
  45   48    0    0    0
SMALL
NO_CHARGES


@<TRIPOS>ATOM
   1 C1            -0.2644     0.8710    -0.3023 C.2     
   2 C2            -0.1112    -0.4541    -0.3042 C.2     
   3 S3             1.3111     1.6467    -0.2040 S.3     
   4 C4             2.1129     0.0816    -0.1701 C.2     
   5 C5             1.2006    -0.8897    -0.2312 C.2     
   6 S6             3.8546    -0.1656    -0.0710 S.o2    
   7 N7             4.4109    -0.3606    -1.6186 N.am    
   8 C8             4.2741     0.6733    -2.5440 C.ar    
   9 C9             4.8854     1.9245    -2.3085 C.ar    
  10 C10            4.7303     2.9566    -3.2659 C.ar    
  11 C11            3.9760     2.7224    -4.4268 C.ar    
  12 C12            3.3974     1.5057    -4.6271 C.ar    
  13 C13            3.5463     0.4804    -3.6981 C.ar    
  14 N14            5.6015     2.1443    -1.2028 N.ar    
  15 C15            6.1710     3.3035    -0.9785 C.ar    
  16 C16            6.0582     4.3614    -1.8782 C.ar    
  17 C17            5.3407     4.2033    -3.0293 C.ar    
  18 O18            4.4068     1.0549     0.4030 O.2     
  19 O19            4.0465    -1.4118     0.5844 O.2     
  20 S20           -1.8083     1.7152    -0.3921 S.o2    
  21 C21           -2.3711     1.9505     1.2610 C.ar    
  22 C22           -2.0199     3.0935     1.9546 C.ar    
  23 C23           -2.4614     3.2780     3.2515 C.ar    
  24 C24           -3.2543     2.3197     3.8547 C.ar    
  25 C25           -3.6063     1.1771     3.1607 C.ar    
  26 C26           -3.1684     0.9946     1.8623 C.ar    
  27 O27           -1.5287     3.0091    -0.9087 O.2     
  28 O28           -2.7228     0.8153    -1.0030 O.2     
  29 C29            2.8930    -0.8538    -3.9515 C.3     
  30 H30           -0.9474    -1.1354    -0.3582 H       
  31 H31            1.4655    -1.9367    -0.2240 H       
  32 H32            4.8318    -1.1941    -1.8812 H       
  33 H33            3.8544     3.5062    -5.1598 H       
  34 H34            2.8183     1.3329    -5.5221 H       
  35 H35            6.7421     3.4423    -0.0724 H       
  36 H36            6.5381     5.3053    -1.6657 H       
  37 H37            5.2431     5.0124    -3.7380 H       
  38 H38           -1.4004     3.8422     1.4834 H       
  39 H39           -2.1864     4.1707     3.7937 H       
  40 H40           -3.5987     2.4636     4.8681 H       
  41 H41           -4.2255     0.4283     3.6321 H       
  42 H42           -3.4433     0.1019     1.3202 H       
  43 H43            3.5803    -1.4962    -4.5020 H       
  44 H44            2.6416    -1.3218    -2.9997 H       
  45 H45            1.9845    -0.7083    -4.5360 H       
@<TRIPOS>BOND
   1    1    2 2
   2    1    3 1
   3    1   20 1
   4    2    5 1
   5    2   30 1
   6    3    4 1
   7    4    5 2
   8    4    6 1
   9    5   31 1
  10    6    7 am
  11    6   18 2
  12    6   19 2
  13    7    8 1
  14    7   32 1
  15    8    9 ar
  16    8   13 ar
  17    9   10 ar
  18    9   14 ar
  19   10   11 ar
  20   10   17 ar
  21   11   12 ar
  22   11   33 1
  23   12   13 ar
  24   12   34 1
  25   13   29 1
  26   14   15 ar
  27   15   16 ar
  28   15   35 1
  29   16   17 ar
  30   16   36 1
  31   17   37 1
  32   20   21 1
  33   20   27 2
  34   20   28 2
  35   21   22 ar
  36   21   26 ar
  37   22   23 ar
  38   22   38 1
  39   23   24 ar
  40   23   39 1
  41   24   25 ar
  42   24   40 1
  43   25   26 ar
  44   25   41 1
  45   26   42 1
  46   29   43 1
  47   29   44 1
  48   29   45 1

#	End of record

