#	Name: ASD03092207
#	Creating user name:	WinNT
#	Creation time:	15. 06. 2019 20:32

#	Modifying user name:	WinNT
#	Modification time:	15. 06. 2019 20:32

#	Program:	/corina/corina34_cracker 3.40 0067  02.08.2006

@<TRIPOS>MOLECULE
ASD03092207
  49   51    0    0    0
SMALL
NO_CHARGES


@<TRIPOS>ATOM
   1 C1            -0.0072     0.9287     0.9746 C.ar    
   2 C2            -0.0073    -0.4292     0.7305 C.ar    
   3 C3            -1.2310    -1.0939     0.5947 C.ar    
   4 C4            -2.4061    -0.3445     0.7138 C.ar    
   5 C5            -2.3136     1.0105     0.9586 C.ar    
   6 N6            -1.1391     1.5973     1.0849 N.ar    
   7 C7            -1.2806    -2.5497     0.3318 C.2     
   8 C8             1.3038     1.6569     1.1235 C.3     
   9 N9            -2.3397    -3.3610     0.5488 N.pl3   
  10 N10           -1.9379    -4.6490     0.1592 N.2     
  11 C11           -0.6967    -4.5522    -0.2597 C.2     
  12 N12           -0.3020    -3.2823    -0.1604 N.2     
  13 C13           -3.6472    -2.9737     1.0842 C.3     
  14 C14           -4.5903    -2.6317    -0.0709 C.3     
  15 O15           -4.8334    -3.8044    -0.8505 O.3     
  16 C16           -5.9143    -2.1084     0.4895 C.3     
  17 C17           -6.8102    -1.6499    -0.6629 C.3     
  18 N18            0.0821    -5.6081    -0.7375 N.pl3   
  19 C19            1.3525    -5.3574    -1.2624 C.ar    
  20 C20            2.3314    -6.3405    -1.2125 C.ar    
  21 C21            3.5911    -6.0892    -1.7338 C.ar    
  22 C22            3.8720    -4.8563    -2.3046 C.ar    
  23 C23            2.8956    -3.8759    -2.3537 C.ar    
  24 C24            1.6358    -4.1258    -1.8399 C.ar    
  25 F25            3.1719    -2.6758    -2.9092 F       
  26 O26            4.5507    -7.0502    -1.6855 O.3     
  27 C27            5.8256    -6.7225    -2.2415 C.3     
  28 H28            0.9232    -0.9708     0.6452 H       
  29 H29           -3.3712    -0.8191     0.6153 H       
  30 H30           -3.2152     1.5976     1.0522 H       
  31 H31            1.6337     2.0144     0.1481 H       
  32 H32            1.1741     2.5047     1.7963 H       
  33 H33            2.0517     0.9785     1.5339 H       
  34 H34           -4.0631    -3.8002     1.6604 H       
  35 H35           -3.5321    -2.1027     1.7293 H       
  36 H36           -4.1336    -1.8664    -0.6985 H       
  37 H37           -5.2397    -4.5288    -0.3553 H       
  38 H38           -6.4136    -2.9031     1.0439 H       
  39 H39           -5.7200    -1.2677     1.1554 H       
  40 H40           -6.3109    -0.8552    -1.2172 H       
  41 H41           -7.0045    -2.4907    -1.3288 H       
  42 H42           -7.7535    -1.2771    -0.2636 H       
  43 H43           -0.2588    -6.5156    -0.7051 H       
  44 H44            2.1119    -7.2998    -0.7676 H       
  45 H45            4.8535    -4.6609    -2.7106 H       
  46 H46            0.8751    -3.3601    -1.8789 H       
  47 H47            5.7094    -6.4775    -3.2973 H       
  48 H48            6.2428    -5.8651    -1.7134 H       
  49 H49            6.4971    -7.5749    -2.1381 H       
@<TRIPOS>BOND
   1    1    2 ar
   2    1    8 1
   3    1    6 ar
   4    2    3 ar
   5    2   28 1
   6    3    4 ar
   7    3    7 1
   8    4    5 ar
   9    4   29 1
  10    5    6 ar
  11    5   30 1
  12    7    9 1
  13    7   12 2
  14    8   31 1
  15    8   32 1
  16    8   33 1
  17    9   10 1
  18    9   13 1
  19   10   11 2
  20   11   12 1
  21   11   18 1
  22   13   14 1
  23   13   34 1
  24   13   35 1
  25   14   15 1
  26   14   16 1
  27   14   36 1
  28   15   37 1
  29   16   17 1
  30   16   38 1
  31   16   39 1
  32   17   40 1
  33   17   41 1
  34   17   42 1
  35   18   19 1
  36   18   43 1
  37   19   20 ar
  38   19   24 ar
  39   20   21 ar
  40   20   44 1
  41   21   22 ar
  42   21   26 1
  43   22   23 ar
  44   22   45 1
  45   23   24 ar
  46   23   25 1
  47   24   46 1
  48   26   27 1
  49   27   47 1
  50   27   48 1
  51   27   49 1

#	End of record

