#	Name: ASD02560503
#	Creating user name:	WinNT
#	Creation time:	15. 06. 2019 20:25

#	Modifying user name:	WinNT
#	Modification time:	15. 06. 2019 20:25

#	Program:	/corina/corina34_cracker 3.40 0067  02.08.2006

@<TRIPOS>MOLECULE
ASD02560503
  43   46    0    0    0
SMALL
NO_CHARGES


@<TRIPOS>ATOM
   1 C1             0.6485     1.9212    -1.2848 C.2     
   2 C2             0.8636     0.7346    -2.0083 C.2     
   3 C3             1.8958    -0.0748    -1.6980 C.2     
   4 N4             2.7491     0.2446    -0.6760 N.pl3   
   5 C5             2.5637     1.3991     0.0498 C.2     
   6 C6             1.4861     2.2534    -0.2671 C.2     
   7 C7             3.8499    -0.3851    -0.1648 C.2     
   8 C8             4.3163     0.4016     0.8674 C.2     
   9 N9             3.5118     1.4756     0.9691 N.2     
  10 C10            5.4963     0.1144     1.7162 C.ar    
  11 N11            4.3961    -1.5919    -0.6029 N.3     
  12 C12            5.7576    -1.3969    -1.1191 C.3     
  13 C13            5.4779    -0.9650     2.5985 C.ar    
  14 C14            6.5563    -2.7074    -1.0073 C.3     
  15 C15            6.5800    -1.2276     3.3867 C.ar    
  16 C16            7.7016    -0.4224     3.3034 C.ar    
  17 C17            7.7269     0.6505     2.4301 C.ar    
  18 C18            6.6331     0.9199     1.6318 C.ar    
  19 Cl19           6.6660     2.2663     0.5363 Cl      
  20 C20            6.9641    -3.0987    -2.4427 C.3     
  21 C21            6.9365    -1.7612    -3.2234 C.3     
  22 C22            5.7078    -1.0376    -2.6185 C.3     
  23 C23            2.1123    -1.3431    -2.4827 C.3     
  24 H24           -0.1772     2.5689    -1.5399 H       
  25 H25            0.1980     0.4703    -2.8168 H       
  26 H26            1.3286     3.1629     0.2937 H       
  27 H27            4.3837    -2.2826     0.1325 H       
  28 H28            6.2583    -0.6057    -0.5612 H       
  29 H29            4.6027    -1.5942     2.6653 H       
  30 H30            7.4452    -2.5518    -0.3959 H       
  31 H31            5.9338    -3.4880    -0.5701 H       
  32 H32            6.5665    -2.0635     4.0704 H       
  33 H33            8.5611    -0.6318     3.9229 H       
  34 H34            8.6056     1.2756     2.3695 H       
  35 H35            7.9673    -3.5249    -2.4515 H       
  36 H36            6.2462    -3.8018    -2.8650 H       
  37 H37            7.8477    -1.1905    -3.0443 H       
  38 H38            6.7940    -1.9390    -4.2893 H       
  39 H39            4.7870    -1.4079    -3.0692 H       
  40 H40            5.7942     0.0402    -2.7556 H       
  41 H41            1.2853    -1.4857    -3.1782 H       
  42 H42            3.0468    -1.2709    -3.0392 H       
  43 H43            2.1616    -2.1899    -1.7982 H       
@<TRIPOS>BOND
   1    1    2 1
   2    1    6 2
   3    1   24 1
   4    2    3 2
   5    2   25 1
   6    3    4 1
   7    3   23 1
   8    4    5 1
   9    4    7 1
  10    5    6 1
  11    5    9 2
  12    6   26 1
  13    7    8 2
  14    7   11 1
  15    8    9 1
  16    8   10 1
  17   10   13 ar
  18   10   18 ar
  19   11   12 1
  20   11   27 1
  21   12   14 1
  22   12   22 1
  23   12   28 1
  24   13   15 ar
  25   13   29 1
  26   14   20 1
  27   14   30 1
  28   14   31 1
  29   15   16 ar
  30   15   32 1
  31   16   17 ar
  32   16   33 1
  33   17   18 ar
  34   17   34 1
  35   18   19 1
  36   20   21 1
  37   20   35 1
  38   20   36 1
  39   21   22 1
  40   21   37 1
  41   21   38 1
  42   22   39 1
  43   22   40 1
  44   23   41 1
  45   23   42 1
  46   23   43 1

#	End of record

