#	Name: ASD01350013
#	Creating user name:	WinNT
#	Creation time:	15. 06. 2019 19:16

#	Modifying user name:	WinNT
#	Modification time:	15. 06. 2019 19:16

#	Program:	/corina/corina34_cracker 3.40 0067  02.08.2006

@<TRIPOS>MOLECULE
ASD01350013
  63   68    0    0    0
SMALL
NO_CHARGES


@<TRIPOS>ATOM
   1 C1            -0.0006     1.3680    -0.1759 C.3     
   2 C2             0.1200    -0.1268    -0.1042 C.ar    
   3 C3             0.7303    -0.7500     0.9803 C.ar    
   4 C4             1.2984     0.0213     2.0882 C.2     
   5 C5             0.7744     1.0907     2.6438 C.2     
   6 C6            -0.4874     1.7343     2.2709 C.ar    
   7 C7            -0.8646     1.8815     0.9393 C.ar    
   8 C8            -1.3304     2.2139     3.2838 C.ar    
   9 C9            -2.5186     2.8304     2.9598 C.ar    
  10 C10           -2.8832     2.9791     1.6329 C.ar    
  11 C11           -2.0592     2.5067     0.6289 C.ar    
  12 C12           -0.3881    -0.8912    -1.1394 C.ar    
  13 C13           -0.2995    -2.2699    -1.0999 C.ar    
  14 C14            0.2988    -2.8978    -0.0213 C.ar    
  15 C15            0.8113    -2.1497     1.0152 C.ar    
  16 O16            1.2998     1.9513    -0.0715 O.3     
  17 C17            1.4369     3.1937    -0.7642 C.3     
  18 C18            2.4715     4.0654    -0.0468 C.3     
  19 C19            2.7185     5.3327    -0.8809 C.3     
  20 N20            3.3189     4.9011    -2.1712 N.3     
  21 C21            2.1789     4.2721    -2.8898 C.3     
  22 C22            1.8926     2.9277    -2.2018 C.3     
  23 C23            0.9851     5.2125    -2.6054 C.3     
  24 C24            1.3416     5.9133    -1.2779 C.3     
  25 C25            3.8423     6.0519    -2.9193 C.3     
  26 C26            4.9657     6.7128    -2.1180 C.3     
  27 C27            5.5109     7.9113    -2.8972 C.3     
  28 C28            6.0569     7.4374    -4.2456 C.3     
  29 C29            4.9335     6.7765    -5.0469 C.3     
  30 C30            4.3883     5.5779    -4.2677 C.3     
  31 H31           -0.4442     1.6475    -1.1315 H       
  32 H32            2.2407    -0.3229     2.4882 H       
  33 H33            1.3284     1.5387     3.4555 H       
  34 H34           -1.0476     2.0993     4.3198 H       
  35 H35           -3.1665     3.1979     3.7418 H       
  36 H36           -3.8142     3.4654     1.3814 H       
  37 H37           -2.3497     2.6260    -0.4044 H       
  38 H38           -0.8565    -0.4075    -1.9838 H       
  39 H39           -0.6979    -2.8587    -1.9129 H       
  40 H40            0.3636    -3.9754     0.0076 H       
  41 H41            1.2772    -2.6418     1.8561 H       
  42 H42            0.4763     3.7087    -0.7786 H       
  43 H43            2.0948     4.3438     0.9374 H       
  44 H44            3.4041     3.5115     0.0605 H       
  45 H45            3.3442     6.0543    -0.3557 H       
  46 H46            2.3774     4.1541    -3.9551 H       
  47 H47            2.7992     2.3226    -2.1913 H       
  48 H48            1.1063     2.4010    -2.7425 H       
  49 H49            0.8808     5.9456    -3.4052 H       
  50 H50            0.0663     4.6365    -2.4954 H       
  51 H51            0.5981     5.6818    -0.5152 H       
  52 H52            1.4126     6.9910    -1.4250 H       
  53 H53            3.0414     6.7725    -3.0846 H       
  54 H54            4.5768     7.0504    -1.1574 H       
  55 H55            5.7666     5.9921    -1.9527 H       
  56 H56            4.7100     8.6320    -3.0625 H       
  57 H57            6.3113     8.3822    -2.3264 H       
  58 H58            6.4453     8.2913    -4.8007 H       
  59 H59            6.8578     6.7168    -4.0803 H       
  60 H60            4.1326     7.4971    -5.2122 H       
  61 H61            5.3225     6.4389    -6.0075 H       
  62 H62            5.1892     4.8573    -4.1024 H       
  63 H63            3.5880     5.1071    -4.8385 H       
@<TRIPOS>BOND
   1    1    2 1
   2    1   16 1
   3    1    7 1
   4    1   31 1
   5    2    3 ar
   6    2   12 ar
   7    3    4 1
   8    3   15 ar
   9    4    5 2
  10    4   32 1
  11    5    6 1
  12    5   33 1
  13    6    7 ar
  14    6    8 ar
  15    7   11 ar
  16    8    9 ar
  17    8   34 1
  18    9   10 ar
  19    9   35 1
  20   10   11 ar
  21   10   36 1
  22   11   37 1
  23   12   13 ar
  24   12   38 1
  25   13   14 ar
  26   13   39 1
  27   14   15 ar
  28   14   40 1
  29   15   41 1
  30   16   17 1
  31   17   18 1
  32   17   22 1
  33   17   42 1
  34   18   19 1
  35   18   43 1
  36   18   44 1
  37   19   20 1
  38   19   24 1
  39   19   45 1
  40   20   21 1
  41   20   25 1
  42   21   22 1
  43   21   23 1
  44   21   46 1
  45   22   47 1
  46   22   48 1
  47   23   24 1
  48   23   49 1
  49   23   50 1
  50   24   51 1
  51   24   52 1
  52   25   26 1
  53   25   30 1
  54   25   53 1
  55   26   27 1
  56   26   54 1
  57   26   55 1
  58   27   28 1
  59   27   56 1
  60   27   57 1
  61   28   29 1
  62   28   58 1
  63   28   59 1
  64   29   30 1
  65   29   60 1
  66   29   61 1
  67   30   62 1
  68   30   63 1

#	End of record

