#	Name: ASD00191058
#	Creating user name:	WinNT
#	Creation time:	15. 06. 2019 18:33

#	Modifying user name:	WinNT
#	Modification time:	15. 06. 2019 18:33

#	Program:	/corina/corina34_cracker 3.40 0067  02.08.2006

@<TRIPOS>MOLECULE
ASD00191058
  43   46    0    0    0
SMALL
NO_CHARGES


@<TRIPOS>ATOM
   1 C1            -0.0321     1.4020     0.4026 C.ar    
   2 C2            -0.0147    -0.0126     0.4158 C.ar    
   3 N3            -1.1505    -0.6966     0.2292 N.ar    
   4 C4            -2.2994    -0.0802     0.0311 C.ar    
   5 C5            -2.3887     1.3150     0.0059 C.ar    
   6 C6            -1.2610     2.0731     0.1856 C.ar    
   7 C7             1.1600     2.1122     0.5974 C.ar    
   8 C8             2.3246     1.4330     0.7977 C.ar    
   9 C9             2.3451     0.0409     0.8109 C.ar    
  10 C10            1.2042    -0.6792     0.6257 C.ar    
  11 C11           -3.3606    -2.2256    -0.2722 C.ar    
  12 C12           -4.3728    -3.0313     0.2336 C.ar    
  13 C13           -4.2852    -4.4043     0.1137 C.ar    
  14 C14           -3.1912    -4.9773    -0.5086 C.ar    
  15 C15           -2.1818    -4.1781    -1.0133 C.ar    
  16 C16           -2.2633    -2.8044    -0.8972 C.ar    
  17 N17           -1.3228     3.4632     0.1650 N.am    
  18 C18           -2.2431     4.0856    -0.5980 C.2     
  19 C19           -2.2371     5.5884    -0.7103 C.3     
  20 O20           -3.0760     3.4362    -1.1941 O.2     
  21 N21           -3.4488    -0.8354    -0.1578 N.pl3   
  22 C22           -3.3489     6.1428    -1.6166 C.3     
  23 C23           -3.5199     7.2698    -0.5845 C.3     
  24 C24           -2.9444     6.2962     0.4574 C.3     
  25 H25           -3.3427     1.7938    -0.1587 H       
  26 H26            1.1560     3.1922     0.5885 H       
  27 H27            3.2428     1.9814     0.9478 H       
  28 H28            3.2799    -0.4757     0.9712 H       
  29 H29            1.2364    -1.7586     0.6389 H       
  30 H30           -5.2271    -2.5845     0.7204 H       
  31 H31           -5.0718    -5.0314     0.5068 H       
  32 H32           -3.1249    -6.0513    -0.6004 H       
  33 H33           -1.3286    -4.6288    -1.4985 H       
  34 H34           -1.4748    -2.1808    -1.2919 H       
  35 H35           -0.7036     3.9842     0.6998 H       
  36 H36           -1.2496     5.9922    -0.9337 H       
  37 H37           -4.3131    -0.3983    -0.2103 H       
  38 H38           -2.9900     6.4891    -2.5859 H       
  39 H39           -4.2161     5.4870    -1.6948 H       
  40 H40           -2.8834     8.1345    -0.7726 H       
  41 H41           -4.5599     7.5404    -0.4017 H       
  42 H42           -3.7010     5.6824     0.9462 H       
  43 H43           -2.2590     6.7664     1.1626 H       
@<TRIPOS>BOND
   1    1    2 ar
   2    1    7 ar
   3    1    6 ar
   4    2    3 ar
   5    2   10 ar
   6    3    4 ar
   7    4    5 ar
   8    4   21 1
   9    5    6 ar
  10    5   25 1
  11    6   17 1
  12    7    8 ar
  13    7   26 1
  14    8    9 ar
  15    8   27 1
  16    9   10 ar
  17    9   28 1
  18   10   29 1
  19   11   12 ar
  20   11   16 ar
  21   11   21 1
  22   12   13 ar
  23   12   30 1
  24   13   14 ar
  25   13   31 1
  26   14   15 ar
  27   14   32 1
  28   15   16 ar
  29   15   33 1
  30   16   34 1
  31   17   18 am
  32   17   35 1
  33   18   19 1
  34   18   20 2
  35   19   22 1
  36   19   24 1
  37   19   36 1
  38   21   37 1
  39   22   23 1
  40   22   38 1
  41   22   39 1
  42   23   24 1
  43   23   40 1
  44   23   41 1
  45   24   42 1
  46   24   43 1

#	End of record

