#	Name: ASD01810700
#	Creating user name:	WinNT
#	Creation time:	15. 06. 2019 19:25

#	Modifying user name:	WinNT
#	Modification time:	15. 06. 2019 19:25

#	Program:	/corina/corina34_cracker 3.40 0067  02.08.2006

@<TRIPOS>MOLECULE
ASD01810700
  17   17    0    0    0
SMALL
NO_CHARGES


@<TRIPOS>ATOM
   1 C1            -0.0187     1.5271     0.0104 C.3     
   2 C2             0.0021    -0.0041     0.0020 C.3     
   3 C3             0.9697    -0.5011     1.0404 C.2     
   4 C4             1.8751     0.2635     1.5744 C.2     
   5 C5             2.0346     1.7130     1.2131 C.3     
   6 O6             1.3349     1.9974     0.0000 O.3     
   7 C7             0.8861    -1.9404     1.4790 C.3     
   8 H8            -0.5410     1.8920    -0.8740 H       
   9 H9            -0.5239     1.8824     0.9085 H       
  10 H10           -0.9957    -0.3818     0.2253 H       
  11 H11            0.3119    -0.3575    -0.9815 H       
  12 H12            2.5416    -0.1616     2.3102 H       
  13 H13            1.6330     2.3317     2.0156 H       
  14 H14            3.0929     1.9381     1.0811 H       
  15 H15            1.5262    -2.5518     0.8429 H       
  16 H16            1.2160    -2.0245     2.5144 H       
  17 H17           -0.1444    -2.2860     1.3968 H       
@<TRIPOS>BOND
   1    1    2 1
   2    1    6 1
   3    1    8 1
   4    1    9 1
   5    2    3 1
   6    2   10 1
   7    2   11 1
   8    3    4 2
   9    3    7 1
  10    4    5 1
  11    4   12 1
  12    5    6 1
  13    5   13 1
  14    5   14 1
  15    7   15 1
  16    7   16 1
  17    7   17 1

#	End of record

