#	Name: ASD05872046
#	Creating user name:	WinNT
#	Creation time:	15. 06. 2019 21:04

#	Modifying user name:	WinNT
#	Modification time:	15. 06. 2019 21:04

#	Program:	/corina/corina34_cracker 3.40 0067  02.08.2006

@<TRIPOS>MOLECULE
ASD05872046
  58   62    0    0    0
SMALL
NO_CHARGES


@<TRIPOS>ATOM
   1 C1            -0.2504     1.8239    -0.1549 C.ar    
   2 C2            -0.4325     0.4373    -0.2277 C.ar    
   3 C3             0.6775    -0.4142    -0.1717 C.ar    
   4 C4             1.9431     0.1127    -0.0455 C.ar    
   5 C5             2.1227     1.4884     0.0266 C.ar    
   6 C6             1.0221     2.3435    -0.0285 C.ar    
   7 C7            -1.7838    -0.1220    -0.3618 C.2     
   8 C8            -1.9772    -1.6145    -0.4399 C.3     
   9 O9            -2.7442     0.6173    -0.4097 O.2     
  10 S10           -3.7413    -1.9867    -0.6001 S.3     
  11 C11           -3.6778    -3.7462    -0.6682 C.2     
  12 N12           -4.8622    -4.4420    -0.7943 N.am    
  13 C13           -4.8425    -5.8253    -0.8509 C.2     
  14 C14           -3.5226    -6.4877    -0.7702 C.ar    
  15 C15           -2.3750    -5.6786    -0.6420 C.ar    
  16 N16           -2.5115    -4.3294    -0.6023 N.2     
  17 C17           -3.4009    -7.8725    -0.8179 C.ar    
  18 C18           -2.1497    -8.4482    -0.7389 C.ar    
  19 C19           -1.0171    -7.6565    -0.6122 C.ar    
  20 C20           -1.1181    -6.2835    -0.5641 C.ar    
  21 C21           -6.1331    -3.9869    -0.8792 C.2     
  22 C22           -6.9980    -5.2232    -1.0019 C.3     
  23 N23           -6.0368    -6.3341    -0.9700 N.2     
  24 O24           -6.5018    -2.8323    -0.8604 O.2     
  25 C25           -7.7627    -5.2135    -2.3271 C.3     
  26 C26           -8.7060    -6.3878    -2.3713 C.ar    
  27 C27           -9.9960    -6.2567    -1.8921 C.ar    
  28 C28          -10.8613    -7.3339    -1.9326 C.ar    
  29 C29          -10.4368    -8.5422    -2.4529 C.ar    
  30 C30           -9.1471    -8.6732    -2.9330 C.ar    
  31 C31           -8.2832    -7.5947    -2.8964 C.ar    
  32 O32            1.2028     3.6896     0.0420 O.3     
  33 S33            1.0717     4.2590     1.4474 S.o2    
  34 O34            0.9417     5.7009     1.3052 O.co2   
  35 O35           -0.1166     3.6590     2.0339 O.co2   
  36 O36            2.2814     3.8880     2.1649 O.co2   
  37 O37            3.3731     2.0020     0.1514 O.3     
  38 S38            4.0949     2.2031    -1.1734 S.o2    
  39 O39            5.4950     2.4385    -0.8567 O.co2   
  40 O40            3.9069     0.9830    -1.9428 O.co2   
  41 O41            3.4794     3.3540    -1.8158 O.co2   
  42 H42           -1.1030     2.4852    -0.2022 H       
  43 H43            0.5408    -1.4841    -0.2271 H       
  44 H44            2.7985    -0.5451    -0.0020 H       
  45 H45           -1.4433    -2.0052    -1.3061 H       
  46 H46           -1.5887    -2.0791     0.4663 H       
  47 H47           -4.2797    -8.4927    -0.9158 H       
  48 H48           -2.0510    -9.5231    -0.7756 H       
  49 H49           -0.0447    -8.1224    -0.5508 H       
  50 H50           -0.2296    -5.6775    -0.4657 H       
  51 H51           -7.6888    -5.2913    -0.1615 H       
  52 H52           -8.3312    -4.2873    -2.4117 H       
  53 H53           -7.0566    -5.2832    -3.1545 H       
  54 H54          -10.3276    -5.3126    -1.4856 H       
  55 H55          -11.8689    -7.2316    -1.5575 H       
  56 H56          -11.1126    -9.3841    -2.4839 H       
  57 H57           -8.8154    -9.6173    -3.3392 H       
  58 H58           -7.2756    -7.6969    -3.2716 H       
@<TRIPOS>BOND
   1    1    2 ar
   2    1    6 ar
   3    1   42 1
   4    2    3 ar
   5    2    7 1
   6    3    4 ar
   7    3   43 1
   8    4    5 ar
   9    4   44 1
  10    5    6 ar
  11    5   37 1
  12    6   32 1
  13    7    8 1
  14    7    9 2
  15    8   10 1
  16    8   45 1
  17    8   46 1
  18   10   11 1
  19   11   12 1
  20   11   16 2
  21   12   13 1
  22   12   21 am
  23   13   14 1
  24   13   23 2
  25   14   15 ar
  26   14   17 ar
  27   15   16 1
  28   15   20 ar
  29   17   18 ar
  30   17   47 1
  31   18   19 ar
  32   18   48 1
  33   19   20 ar
  34   19   49 1
  35   20   50 1
  36   21   22 1
  37   21   24 2
  38   22   23 1
  39   22   25 1
  40   22   51 1
  41   25   26 1
  42   25   52 1
  43   25   53 1
  44   26   27 ar
  45   26   31 ar
  46   27   28 ar
  47   27   54 1
  48   28   29 ar
  49   28   55 1
  50   29   30 ar
  51   29   56 1
  52   30   31 ar
  53   30   57 1
  54   31   58 1
  55   32   33 1
  56   33   34 ar
  57   33   35 ar
  58   33   36 ar
  59   37   38 1
  60   38   39 ar
  61   38   40 ar
  62   38   41 ar

#	End of record

