#	Name: ASD03331359
#	Creating user name:	WinNT
#	Creation time:	15. 06. 2019 20:39

#	Modifying user name:	WinNT
#	Modification time:	15. 06. 2019 20:39

#	Program:	/corina/corina34_cracker 3.40 0067  02.08.2006

@<TRIPOS>MOLECULE
ASD03331359
  43   45    0    0    0
SMALL
NO_CHARGES


@<TRIPOS>ATOM
   1 C1            -0.0692     1.4991    -0.1819 C.3     
   2 C2            -0.0199    -0.0070    -0.0813 C.2     
   3 C3             1.0802    -0.7462    -0.3647 C.2     
   4 C4             2.4031    -0.1756    -0.8100 C.3     
   5 C5             2.1802     1.2566    -1.3114 C.3     
   6 N6             1.3158     1.9712    -0.3596 N.am    
   7 N7            -0.5042    -2.1538     0.2278 N.2     
   8 N8            -1.0039    -0.8443     0.2875 N.pl3   
   9 C9             0.7527    -2.0966    -0.1659 C.2     
  10 C10            1.7782     3.0313     0.3324 C.2     
  11 O11            2.9226     3.4078     0.1743 O.2     
  12 O12            0.9720     3.6730     1.1990 O.3     
  13 C13            1.6599    -3.2542    -0.3639 C.ar    
  14 C14            1.2222    -4.3730    -1.0736 C.ar    
  15 C15            2.0705    -5.4489    -1.2555 C.ar    
  16 C16            3.3530    -5.4178    -0.7342 C.ar    
  17 C17            3.7921    -4.3077    -0.0275 C.ar    
  18 C18            2.9529    -3.2248     0.1535 C.ar    
  19 F19            5.0442    -4.2828     0.4794 F       
  20 F20            4.1788    -6.4717    -0.9139 F       
  21 F21           -0.0292    -4.4047    -1.5819 F       
  22 C22            1.5370     4.8062     1.9096 C.3     
  23 C23            1.9860     5.8672     0.9028 C.3     
  24 C24            0.4801     5.4023     2.8415 C.3     
  25 C25            2.7404     4.3432     2.7333 C.3     
  26 H26           -0.6746     1.7941    -1.0390 H       
  27 H27           -0.4896     1.9184     0.7322 H       
  28 H28            3.0976    -0.1647     0.0300 H       
  29 H29            2.8112    -0.7855    -1.6160 H       
  30 H30            3.1391     1.7692    -1.3880 H       
  31 H31            1.7013     1.2296    -2.2902 H       
  32 H32           -1.9022    -0.5883     0.5491 H       
  33 H33            1.7326    -6.3152    -1.8047 H       
  34 H34            3.2974    -2.3589     0.6993 H       
  35 H35            1.1287     6.1971     0.3160 H       
  36 H36            2.4102     6.7178     1.4362 H       
  37 H37            2.7390     5.4425     0.2389 H       
  38 H38            0.1602     4.6465     3.5587 H       
  39 H39            0.9042     6.2530     3.3749 H       
  40 H40           -0.3772     5.7322     2.2546 H       
  41 H41            3.4933     3.9185     2.0694 H       
  42 H42            3.1645     5.1938     3.2667 H       
  43 H43            2.4205     3.5873     3.4505 H       
@<TRIPOS>BOND
   1    1    2 1
   2    1    6 1
   3    1   26 1
   4    1   27 1
   5    2    3 2
   6    2    8 1
   7    3    4 1
   8    3    9 1
   9    4    5 1
  10    4   28 1
  11    4   29 1
  12    5    6 1
  13    5   30 1
  14    5   31 1
  15    6   10 am
  16    7    8 1
  17    7    9 2
  18    8   32 1
  19    9   13 1
  20   10   11 2
  21   10   12 1
  22   12   22 1
  23   13   14 ar
  24   13   18 ar
  25   14   15 ar
  26   14   21 1
  27   15   16 ar
  28   15   33 1
  29   16   17 ar
  30   16   20 1
  31   17   18 ar
  32   17   19 1
  33   18   34 1
  34   22   23 1
  35   22   25 1
  36   22   24 1
  37   23   35 1
  38   23   36 1
  39   23   37 1
  40   24   38 1
  41   24   39 1
  42   24   40 1
  43   25   41 1
  44   25   42 1
  45   25   43 1

#	End of record

