#	Name: ASD01911131
#	Creating user name:	WinNT
#	Creation time:	15. 06. 2019 19:57

#	Modifying user name:	WinNT
#	Modification time:	15. 06. 2019 19:57

#	Program:	/corina/corina34_cracker 3.40 0067  02.08.2006

@<TRIPOS>MOLECULE
ASD01911131
  48   51    0    0    0
SMALL
NO_CHARGES


@<TRIPOS>ATOM
   1 C1            -0.3887     1.0829     0.3760 C.2     
   2 O2            -0.3381    -0.1241     0.2418 O.2     
   3 C3             0.8597     1.8686     0.4761 C.ar    
   4 C4             1.8282     1.7764    -0.5251 C.ar    
   5 C5             3.1981     3.3400     0.6635 C.ar    
   6 C6             1.0726     2.7099     1.5690 C.ar    
   7 C7             2.9907     2.5120    -0.4256 C.ar    
   8 C8             2.2399     3.4404     1.6563 C.ar    
   9 C9             1.6042     0.8747    -1.7116 C.3     
  10 N10           -1.5828     1.7057     0.4281 N.am    
  11 C11           -2.8289     0.9533     0.2282 C.3     
  12 C12           -3.6428     1.6322    -0.8779 C.3     
  13 C13           -3.8489     3.1064    -0.5224 C.3     
  14 C14           -2.4903     3.8041    -0.4249 C.3     
  15 C15           -1.6636     3.1488     0.6919 C.3     
  16 O16           -5.9131     0.8470    -0.0524 O.3     
  17 N17           -6.8744     0.2426    -0.4787 N.2     
  18 C18           -6.6755    -0.0990    -1.7221 C.2     
  19 N19           -5.4547     0.3562    -2.0721 N.2     
  20 C20           -4.9822     0.9535    -1.0055 C.2     
  21 O21           -7.5359    -0.7845    -2.5151 O.3     
  22 C22           -8.7775    -1.0494    -2.0302 C.ar    
  23 C23           -9.1870    -0.4919    -0.8277 C.ar    
  24 C24          -10.4514    -0.7632    -0.3365 C.ar    
  25 C25          -11.3070    -1.5908    -1.0450 C.ar    
  26 C26          -10.8993    -2.1463    -2.2430 C.ar    
  27 C27           -9.6392    -1.8731    -2.7399 C.ar    
  28 F28          -10.8517    -0.2215     0.8347 F       
  29 H29            4.1101     3.9139     0.7366 H       
  30 H30            0.3252     2.7894     2.3445 H       
  31 H31            3.7410     2.4413    -1.1993 H       
  32 H32            2.4079     4.0885     2.5037 H       
  33 H33            1.0226     1.4047    -2.4660 H       
  34 H34            2.5662     0.5832    -2.1332 H       
  35 H35            1.0618    -0.0158    -1.3940 H       
  36 H36           -2.5947    -0.0698    -0.0660 H       
  37 H37           -3.4044     0.9469     1.1538 H       
  38 H38           -3.1051     1.5576    -1.8231 H       
  39 H39           -4.4487     3.5860    -1.2959 H       
  40 H40           -4.3647     3.1804     0.4350 H       
  41 H41           -1.9635     3.7091    -1.3744 H       
  42 H42           -2.6388     4.8592    -0.1947 H       
  43 H43           -2.1460     3.3179     1.6546 H       
  44 H44           -0.6604     3.5748     0.7038 H       
  45 H45           -8.5193     0.1530    -0.2756 H       
  46 H46          -12.2938    -1.8024    -0.6605 H       
  47 H47          -11.5680    -2.7912    -2.7937 H       
  48 H48           -9.3237    -2.3041    -3.6785 H       
@<TRIPOS>BOND
   1    1    2 2
   2    1    3 1
   3    1   10 am
   4    3    4 ar
   5    3    6 ar
   6    4    7 ar
   7    4    9 1
   8    5    7 ar
   9    5    8 ar
  10    5   29 1
  11    6    8 ar
  12    6   30 1
  13    7   31 1
  14    8   32 1
  15    9   33 1
  16    9   34 1
  17    9   35 1
  18   10   11 1
  19   10   15 1
  20   11   12 1
  21   11   36 1
  22   11   37 1
  23   12   13 1
  24   12   20 1
  25   12   38 1
  26   13   14 1
  27   13   39 1
  28   13   40 1
  29   14   15 1
  30   14   41 1
  31   14   42 1
  32   15   43 1
  33   15   44 1
  34   16   17 1
  35   16   20 1
  36   17   18 2
  37   18   19 1
  38   18   21 1
  39   19   20 2
  40   21   22 1
  41   22   23 ar
  42   22   27 ar
  43   23   24 ar
  44   23   45 1
  45   24   25 ar
  46   24   28 1
  47   25   26 ar
  48   25   46 1
  49   26   27 ar
  50   26   47 1
  51   27   48 1

#	End of record

