#	Name: ASD03910096
#	Creating user name:	WinNT
#	Creation time:	15. 06. 2019 20:47

#	Modifying user name:	WinNT
#	Modification time:	15. 06. 2019 20:47

#	Program:	/corina/corina34_cracker 3.40 0067  02.08.2006

@<TRIPOS>MOLECULE
ASD03910096
  42   43    0    0    0
SMALL
NO_CHARGES


@<TRIPOS>ATOM
   1 C1             0.8162    -0.4615    -1.1975 C.3     
   2 C2            -1.9787     0.6193     3.5379 C.ar    
   3 C3            -1.3911     0.2824     4.7433 C.ar    
   4 C4            -0.1584    -0.3434     4.7632 C.ar    
   5 C5             0.4889    -0.6346     3.5780 C.ar    
   6 C6            -0.0986    -0.2976     2.3672 C.ar    
   7 C7            -1.3353     0.3308     2.3500 C.ar    
   8 O8             0.5366    -0.5821     1.2000 O.3     
   9 C9            -0.0638    -0.0935    -0.0012 C.3     
  10 C10           -0.2030     1.4280     0.0806 C.3     
  11 C11           -2.0953     0.5984     6.0377 C.3     
  12 N12           -2.9484    -0.5303     6.4177 N.am    
  13 C13           -3.6789    -0.4720     7.5488 C.2     
  14 C14           -6.0993    -2.6183     9.4553 C.ar    
  15 C15           -5.2974    -1.5531     9.1033 C.ar    
  16 C16           -4.5395    -1.6106     7.9322 C.ar    
  17 C17           -4.5982    -2.7478     7.1244 C.ar    
  18 C18           -5.4034    -3.8069     7.4871 C.ar    
  19 C19           -6.1534    -3.7439     8.6499 C.ar    
  20 O20           -3.6299     0.5172     8.2537 O.2     
  21 Cl21          -7.1647    -5.0811     9.0999 Cl      
  22 C22           -1.4265    -0.7143    -0.1702 C.2     
  23 O23           -1.8410    -1.4950     0.6535 O.2     
  24 O24           -2.1798    -0.3998    -1.2357 O.3     
  25 H25            0.9852    -1.5382    -1.2066 H       
  26 H26            0.3179    -0.1641    -2.1202 H       
  27 H27            1.7724     0.0557    -1.1179 H       
  28 H28           -2.9435     1.1045     3.5250 H       
  29 H29            0.2988    -0.6049     5.7060 H       
  30 H30            1.4519    -1.1232     3.5941 H       
  31 H31           -1.7948     0.5938     1.4087 H       
  32 H32            0.7852     1.8860     0.0394 H       
  33 H33           -0.8035     1.7834    -0.7568 H       
  34 H34           -0.6900     1.6984     1.0175 H       
  35 H35           -1.3565     0.7749     6.8195 H       
  36 H36           -2.7085     1.4903     5.9094 H       
  37 H37           -2.9875    -1.3196     5.8553 H       
  38 H38           -6.6826    -2.5767    10.3633 H       
  39 H39           -5.2564    -0.6758     9.7318 H       
  40 H40           -4.0144    -2.7978     6.2172 H       
  41 H41           -5.4496    -4.6872     6.8631 H       
  42 H42           -3.0467    -0.8234    -1.3009 H       
@<TRIPOS>BOND
   1    1    9 1
   2    1   25 1
   3    1   26 1
   4    1   27 1
   5    2    3 ar
   6    2    7 ar
   7    2   28 1
   8    3    4 ar
   9    3   11 1
  10    4    5 ar
  11    4   29 1
  12    5    6 ar
  13    5   30 1
  14    6    7 ar
  15    6    8 1
  16    7   31 1
  17    8    9 1
  18    9   10 1
  19    9   22 1
  20   10   32 1
  21   10   33 1
  22   10   34 1
  23   11   12 1
  24   11   35 1
  25   11   36 1
  26   12   13 am
  27   12   37 1
  28   13   20 2
  29   13   16 1
  30   14   15 ar
  31   14   19 ar
  32   14   38 1
  33   15   16 ar
  34   15   39 1
  35   16   17 ar
  36   17   18 ar
  37   17   40 1
  38   18   19 ar
  39   18   41 1
  40   19   21 1
  41   22   23 2
  42   22   24 1
  43   24   42 1

#	End of record

