#	Name: ASD01915545
#	Creating user name:	WinNT
#	Creation time:	15. 06. 2019 20:05

#	Modifying user name:	WinNT
#	Modification time:	15. 06. 2019 20:05

#	Program:	/corina/corina34_cracker 3.40 0067  02.08.2006

@<TRIPOS>MOLECULE
ASD01915545
  43   45    0    0    0
SMALL
NO_CHARGES


@<TRIPOS>ATOM
   1 C1            -0.0245     1.3279     0.0376 C.2     
   2 N2            -0.0224    -0.0490     0.0431 N.pl3   
   3 C3            -1.2769    -0.8108     0.0231 C.3     
   4 C4            -2.3693    -0.0037     0.7226 C.3     
   5 N5            -2.4135     1.3849     0.2774 N.am    
   6 C6            -1.2806     2.0934     0.0527 C.2     
   7 C7             1.2813     1.7298     0.0312 C.2     
   8 C8             2.0264     0.5429     0.0450 C.2     
   9 N9             1.1839    -0.4637     0.0565 N.2     
  10 C10            3.5299     0.4403     0.0464 C.3     
  11 O11            4.0969     1.7519     0.0313 O.3     
  12 C12            5.4532     1.8378     0.0305 C.ar    
  13 O13           -1.3010     3.2962    -0.1266 O.2     
  14 C14            6.0707     3.0800     0.0162 C.ar    
  15 C15            6.2225     0.6835     0.0497 C.ar    
  16 C16            7.6010     0.7735     0.0488 C.ar    
  17 C17            8.2141     2.0126     0.0288 C.ar    
  18 C18            7.4495     3.1646     0.0154 C.ar    
  19 C19           -3.7130     2.0282     0.0684 C.3     
  20 C20           -4.8278     0.9954     0.2460 C.3     
  21 C21           -3.8943     3.1546     1.0878 C.3     
  22 C22           -3.7741     2.6064    -1.3468 C.3     
  23 H23           -1.5702    -1.0018    -1.0091 H       
  24 H24           -1.1355    -1.7584     0.5429 H       
  25 H25           -3.3343    -0.4689     0.5216 H       
  26 H26           -2.1882    -0.0233     1.7973 H       
  27 H27            1.6575     2.7420     0.0182 H       
  28 H28            3.8573    -0.0868     0.9426 H       
  29 H29            3.8575    -0.1074    -0.8373 H       
  30 H30            5.4740     3.9801     0.0054 H       
  31 H31            5.7441    -0.2846     0.0657 H       
  32 H32            8.2003    -0.1248     0.0641 H       
  33 H33            9.2919     2.0809     0.0281 H       
  34 H34            7.9308     4.1314    -0.0006 H       
  35 H35           -4.7843     0.5834     1.2542 H       
  36 H36           -5.7947     1.4740     0.0905 H       
  37 H37           -4.6986     0.1929    -0.4803 H       
  38 H38           -3.0605     3.8523     1.0106 H       
  39 H39           -4.8277     3.6802     0.8863 H       
  40 H40           -3.9240     2.7338     2.0929 H       
  41 H41           -3.6450     1.8039    -2.0730 H       
  42 H42           -4.7410     3.0850    -1.5023 H       
  43 H43           -2.9800     3.3422    -1.4733 H       
@<TRIPOS>BOND
   1    1    2 1
   2    1    7 2
   3    1    6 1
   4    2    3 1
   5    2    9 1
   6    3    4 1
   7    3   23 1
   8    3   24 1
   9    4    5 1
  10    4   25 1
  11    4   26 1
  12    5    6 am
  13    5   19 1
  14    6   13 2
  15    7    8 1
  16    7   27 1
  17    8    9 2
  18    8   10 1
  19   10   11 1
  20   10   28 1
  21   10   29 1
  22   11   12 1
  23   12   14 ar
  24   12   15 ar
  25   14   18 ar
  26   14   30 1
  27   15   16 ar
  28   15   31 1
  29   16   17 ar
  30   16   32 1
  31   17   18 ar
  32   17   33 1
  33   18   34 1
  34   19   20 1
  35   19   21 1
  36   19   22 1
  37   20   35 1
  38   20   36 1
  39   20   37 1
  40   21   38 1
  41   21   39 1
  42   21   40 1
  43   22   41 1
  44   22   42 1
  45   22   43 1

#	End of record

