#	Name: ASD01950002
#	Creating user name:	WinNT
#	Creation time:	15. 06. 2019 20:14

#	Modifying user name:	WinNT
#	Modification time:	15. 06. 2019 20:14

#	Program:	/corina/corina34_cracker 3.40 0067  02.08.2006

@<TRIPOS>MOLECULE
ASD01950002
  46   49    0    0    0
SMALL
NO_CHARGES


@<TRIPOS>ATOM
   1 C1            -0.0644     1.3672    -0.1020 C.ar    
   2 C2            -0.0014    -0.0192     0.0975 C.ar    
   3 C3             1.1589     2.1255    -0.4302 C.2     
   4 C4            -1.2905     2.0263     0.0055 C.ar    
   5 N5             1.2182    -0.6885    -0.0129 N.pl3   
   6 C6            -1.1581    -0.7233     0.4058 C.ar    
   7 O7             1.2413     3.4569    -0.6466 O.3     
   8 N8             2.3669     1.6325    -0.5598 N.2     
   9 C9            -2.4318     1.3136     0.3065 C.ar    
  10 C10            1.2406    -2.0699    -0.2308 C.ar    
  11 C11           -2.3669    -0.0561     0.5151 C.ar    
  12 C12            2.5359     3.7176    -0.9108 C.2     
  13 N13            3.1870     2.5810    -0.8479 N.2     
  14 C14            0.8330    -2.5891    -1.4552 C.ar    
  15 C15            1.6752    -2.9257     0.7726 C.ar    
  16 N16            3.0792     4.9564    -1.1939 N.pl3   
  17 C17            0.8567    -3.9554    -1.6666 C.ar    
  18 C18            1.6962    -4.2896     0.5546 C.ar    
  19 C19            4.5139     5.0831    -1.4619 C.3     
  20 C20            1.2846    -4.8044    -0.6617 C.ar    
  21 C21            4.8526     6.5482    -1.7441 C.3     
  22 N22            6.2873     6.6749    -2.0121 N.pl3   
  23 C23            6.7953     6.5581    -3.3239 C.2     
  24 C24            7.2032     6.9235    -0.9673 C.2     
  25 C25            8.0960     6.3962    -3.4898 C.2     
  26 C26            8.4928     6.7515    -1.1980 C.2     
  27 O27            8.9313     6.3369    -2.4188 O.3     
  28 F28           -1.1042    -2.0593     0.5988 F       
  29 F29           -3.4900    -0.7444     0.8152 F       
  30 F30            0.4143    -1.7599    -2.4362 F       
  31 I31            1.3183    -6.8739    -0.9858 I       
  32 H32           -1.3449     3.0941    -0.1468 H       
  33 H33            2.0504    -0.1957     0.0616 H       
  34 H34           -3.3791     1.8257     0.3895 H       
  35 H35            1.9968    -2.5253     1.7226 H       
  36 H36            2.5106     5.7420    -1.2152 H       
  37 H37            0.5405    -4.3600    -2.6167 H       
  38 H38            2.0346    -4.9551     1.3350 H       
  39 H39            5.0773     4.7406    -0.5940 H       
  40 H40            4.7767     4.4761    -2.3283 H       
  41 H41            4.2892     6.8907    -2.6121 H       
  42 H42            4.5898     7.1552    -0.8777 H       
  43 H43            6.1330     6.5998    -4.1760 H       
  44 H44            6.8565     7.2484     0.0025 H       
  45 H45            8.5002     6.3095    -4.4876 H       
  46 H46            9.2062     6.9421    -0.4099 H       
@<TRIPOS>BOND
   1    1    2 ar
   2    1    3 1
   3    1    4 ar
   4    2    5 1
   5    2    6 ar
   6    3    7 1
   7    3    8 2
   8    4    9 ar
   9    4   32 1
  10    5   10 1
  11    5   33 1
  12    6   11 ar
  13    6   28 1
  14    7   12 1
  15    8   13 1
  16    9   11 ar
  17    9   34 1
  18   10   14 ar
  19   10   15 ar
  20   11   29 1
  21   12   13 2
  22   12   16 1
  23   14   17 ar
  24   14   30 1
  25   15   18 ar
  26   15   35 1
  27   16   19 1
  28   16   36 1
  29   17   20 ar
  30   17   37 1
  31   18   20 ar
  32   18   38 1
  33   19   21 1
  34   19   39 1
  35   19   40 1
  36   20   31 1
  37   21   22 1
  38   21   41 1
  39   21   42 1
  40   22   23 1
  41   22   24 1
  42   23   25 2
  43   23   43 1
  44   24   26 2
  45   24   44 1
  46   25   27 1
  47   25   45 1
  48   26   27 1
  49   26   46 1

#	End of record

