#	Name: ASD01478073
#	Creating user name:	WinNT
#	Creation time:	15. 06. 2019 19:21

#	Modifying user name:	WinNT
#	Modification time:	15. 06. 2019 19:21

#	Program:	/corina/corina34_cracker 3.40 0067  02.08.2006

@<TRIPOS>MOLECULE
ASD01478073
  36   37    0    0    0
SMALL
NO_CHARGES


@<TRIPOS>ATOM
   1 C1             0.0504     1.8324    -0.0352 C.3     
   2 C2            -0.0877     0.3800    -0.4802 C.3     
   3 O3            -0.5182     0.3300    -1.8411 O.3     
   4 C4             0.5231     0.6288    -2.7759 C.3     
   5 O5             0.7942     2.0323    -2.7528 O.3     
   6 C6             2.0721     2.3751    -2.2267 C.3     
   7 C7             2.3450     1.5660    -0.9554 C.3     
   8 C8             1.5288     2.1657     0.1996 C.3     
   9 O9            -0.6910     2.0322     1.1972 O.3     
  10 C10           -1.9792     2.4032     1.0818 C.2     
  11 O11           -2.4708     2.5560    -0.0180 O.2     
  12 O12           -2.7227     2.6049     2.1852 O.3     
  13 C13           -4.0427     2.8715     1.9997 C.ar    
  14 C14           -4.9193     1.8470     1.6736 C.ar    
  15 C15           -6.2603     2.1203     1.4861 C.ar    
  16 C16           -6.7291     3.4139     1.6225 C.ar    
  17 C17           -5.8574     4.4369     1.9474 C.ar    
  18 C18           -4.5164     4.1676     2.1416 C.ar    
  19 N19           -8.1663     3.7043     1.4200 N.pl3   
  20 O20           -8.9350     2.8040     1.1334 O.2     
  21 O21           -8.5803     4.8435     1.5400 O.2     
  22 H22           -0.3505     2.4879    -0.8083 H       
  23 H23            0.8758    -0.1209    -0.3863 H       
  24 H24           -0.8201    -0.1241     0.1503 H       
  25 H25            1.4246     0.0799    -2.5036 H       
  26 H26            0.2077     0.3360    -3.7774 H       
  27 H27            2.8401     2.1547    -2.9681 H       
  28 H28            2.0930     3.4390    -1.9904 H       
  29 H29            2.0487     0.5288    -1.1119 H       
  30 H30            3.4071     1.6118    -0.7143 H       
  31 H31            1.6630     3.2472     0.2219 H       
  32 H32            1.8575     1.7342     1.1450 H       
  33 H33           -4.5535     0.8365     1.5662 H       
  34 H34           -6.9432     1.3230     1.2322 H       
  35 H35           -6.2258     5.4466     2.0531 H       
  36 H36           -3.8366     4.9663     2.3994 H       
@<TRIPOS>BOND
   1    1    2 1
   2    1    8 1
   3    1    9 1
   4    1   22 1
   5    2    3 1
   6    2   23 1
   7    2   24 1
   8    3    4 1
   9    4    5 1
  10    4   25 1
  11    4   26 1
  12    5    6 1
  13    6    7 1
  14    6   27 1
  15    6   28 1
  16    7    8 1
  17    7   29 1
  18    7   30 1
  19    8   31 1
  20    8   32 1
  21    9   10 1
  22   10   11 2
  23   10   12 1
  24   12   13 1
  25   13   14 ar
  26   13   18 ar
  27   14   15 ar
  28   14   33 1
  29   15   16 ar
  30   15   34 1
  31   16   17 ar
  32   16   19 1
  33   17   18 ar
  34   17   35 1
  35   18   36 1
  36   19   20 2
  37   19   21 2

#	End of record

