#	Name: ASD01180350
#	Creating user name:	WinNT
#	Creation time:	15. 06. 2019 19:07

#	Modifying user name:	WinNT
#	Modification time:	15. 06. 2019 19:07

#	Program:	/corina/corina34_cracker 3.40 0067  02.08.2006

@<TRIPOS>MOLECULE
ASD01180350
  60   62    0    0    0
SMALL
NO_CHARGES


@<TRIPOS>ATOM
   1 C1            -1.8606     0.6821     1.2836 C.2     
   2 C2            -1.5571    -0.7902     1.1768 C.3     
   3 C3            -0.0776    -0.9827     0.8376 C.3     
   4 O4            -0.9835     1.4941     1.1066 O.2     
   5 O5            -3.1064     1.0915     1.5699 O.3     
   6 C6             1.4671    -2.8248     0.4408 C.2     
   7 C7             1.7648    -4.2692     0.3361 C.ar    
   8 C8             3.0590    -4.7091     0.0323 C.ar    
   9 C9             3.2852    -6.0713    -0.0537 C.ar    
  10 C10            2.2357    -6.9469     0.1611 C.ar    
  11 N11            1.0262    -6.5035     0.4458 N.ar    
  12 C12            0.7623    -5.2170     0.5439 C.ar    
  13 O13            2.3494    -2.0079     0.2628 O.2     
  14 N14            0.2174    -2.4139     0.7338 N.am    
  15 C15            2.4780    -8.4313     0.0678 C.3     
  16 C16            2.0247    -9.1045     1.3648 C.3     
  17 C17            2.3842   -10.5911     1.3205 C.3     
  18 N18            1.7188    -8.9802    -1.0585 N.pl3   
  19 C19            3.2838   -10.8150    -1.2339 C.ar    
  20 C20            2.1425   -10.1572    -1.6786 C.ar    
  21 C21            1.4262   -10.6869    -2.7505 C.ar    
  22 C22            1.8817   -11.8547    -3.3344 C.ar    
  23 C23            3.0339   -12.4589    -2.8351 C.ar    
  24 N24            3.6898   -11.9257    -1.8124 N.ar    
  25 C25            3.5320   -13.7116    -3.4532 C.ar    
  26 C26            3.5756   -13.8380    -4.8405 C.ar    
  27 C27            4.0401   -15.0060    -5.4102 C.ar    
  28 C28            4.4619   -16.0503    -4.6070 C.ar    
  29 C29            4.4209   -15.9305    -3.2295 C.ar    
  30 C30            3.9638   -14.7649    -2.6489 C.ar    
  31 C31            4.9676   -17.3234    -5.2350 C.3     
  32 F32            6.3488   -17.2277    -5.4359 F       
  33 F33            4.6933   -18.4023    -4.3877 F       
  34 F34            4.3302   -17.5221    -6.4644 F       
  35 C35            1.1412   -12.4665    -4.4957 C.3     
  36 H36           -1.7783    -1.2766     2.1268 H       
  37 H37           -2.1704    -1.2315     0.3911 H       
  38 H38            0.1436    -0.4962    -0.1124 H       
  39 H39            0.5356    -0.5413     1.6233 H       
  40 H40           -3.2525     2.0456     1.6279 H       
  41 H41            3.8599    -4.0032    -0.1310 H       
  42 H42            4.2705    -6.4472    -0.2863 H       
  43 H43           -0.2398    -4.8927     0.7830 H       
  44 H44           -0.4867    -3.0658     0.8759 H       
  45 H45            3.5410    -8.6170    -0.0856 H       
  46 H46            2.5247    -8.6349     2.2119 H       
  47 H47            0.9457    -8.9947     1.4733 H       
  48 H48            3.4632   -10.7009     1.2120 H       
  49 H49            2.0612   -11.0707     2.2445 H       
  50 H50            1.8842   -11.0607     0.4734 H       
  51 H51            0.9217    -8.5260    -1.3734 H       
  52 H52            3.8463   -10.4078    -0.4067 H       
  53 H53            0.5359   -10.1969    -3.1163 H       
  54 H54            3.2461   -13.0235    -5.4686 H       
  55 H55            4.0739   -15.1052    -6.4851 H       
  56 H56            4.7512   -16.7491    -2.6072 H       
  57 H57            3.9364   -14.6707    -1.5734 H       
  58 H58            1.5929   -12.1341    -5.4303 H       
  59 H59            1.1980   -13.5531    -4.4310 H       
  60 H60            0.0972   -12.1548    -4.4657 H       
@<TRIPOS>BOND
   1    1    2 1
   2    1    4 2
   3    1    5 1
   4    2    3 1
   5    2   36 1
   6    2   37 1
   7    3   14 1
   8    3   38 1
   9    3   39 1
  10    5   40 1
  11    6    7 1
  12    6   13 2
  13    6   14 am
  14    7    8 ar
  15    7   12 ar
  16    8    9 ar
  17    8   41 1
  18    9   10 ar
  19    9   42 1
  20   10   11 ar
  21   10   15 1
  22   11   12 ar
  23   12   43 1
  24   14   44 1
  25   15   16 1
  26   15   18 1
  27   15   45 1
  28   16   17 1
  29   16   46 1
  30   16   47 1
  31   17   48 1
  32   17   49 1
  33   17   50 1
  34   18   20 1
  35   18   51 1
  36   19   20 ar
  37   19   24 ar
  38   19   52 1
  39   20   21 ar
  40   21   22 ar
  41   21   53 1
  42   22   23 ar
  43   22   35 1
  44   23   24 ar
  45   23   25 1
  46   25   26 ar
  47   25   30 ar
  48   26   27 ar
  49   26   54 1
  50   27   28 ar
  51   27   55 1
  52   28   29 ar
  53   28   31 1
  54   29   30 ar
  55   29   56 1
  56   30   57 1
  57   31   32 1
  58   31   33 1
  59   31   34 1
  60   35   58 1
  61   35   59 1
  62   35   60 1

#	End of record

