#	Name: ASD01912228
#	Creating user name:	WinNT
#	Creation time:	15. 06. 2019 19:59

#	Modifying user name:	WinNT
#	Modification time:	15. 06. 2019 19:59

#	Program:	/corina/corina34_cracker 3.40 0067  02.08.2006

@<TRIPOS>MOLECULE
ASD01912228
  44   45    0    0    0
SMALL
NO_CHARGES


@<TRIPOS>ATOM
   1 C1            -0.0776     1.3715    -0.0224 C.ar    
   2 C2            -0.0669    -0.0263    -0.0293 C.ar    
   3 C3             1.1469    -0.6880    -0.0565 C.ar    
   4 C4             2.3133     0.0655    -0.0761 C.ar    
   5 C5             2.2310     1.4460    -0.0678 C.ar    
   6 N6             1.0633     2.0546    -0.0417 N.ar    
   7 C7             3.4955     2.2655    -0.0890 C.3     
   8 C8            -1.3259     2.0729    -0.0003 C.1     
   9 C9            -2.3493     2.6479     0.0178 C.1     
  10 C10           -3.5976     3.3492     0.0399 C.2     
  11 N11           -3.6308     7.3279     0.9702 N.3     
  12 C12           -4.8325     6.5091     1.1734 C.3     
  13 C13           -4.9187     5.4486     0.0698 C.3     
  14 C14           -3.6132     4.6814     0.0465 C.2     
  15 C15           -2.3261     5.4791     0.0316 C.3     
  16 C16           -2.4046     6.5377     1.1377 C.3     
  17 C17           -3.6313     8.4944     1.8630 C.3     
  18 C18           -3.5497     8.0240     3.3167 C.3     
  19 C19           -3.4413     9.2388     4.2405 C.3     
  20 C20           -3.3597     8.7685     5.6941 C.3     
  21 H21           -0.9932    -0.5814    -0.0132 H       
  22 H22            1.1870    -1.7673    -0.0622 H       
  23 H23            3.2765    -0.4225    -0.0972 H       
  24 H24            3.7800     2.4680    -1.1215 H       
  25 H25            3.3268     3.2075     0.4328 H       
  26 H26            4.2944     1.7138     0.4065 H       
  27 H27           -4.5264     2.7982     0.0511 H       
  28 H28           -4.7782     6.0187     2.1454 H       
  29 H29           -5.7166     7.1455     1.1359 H       
  30 H30           -5.7424     4.7661     0.2793 H       
  31 H31           -5.0777     5.9328    -0.8937 H       
  32 H32           -1.4807     4.8163     0.2165 H       
  33 H33           -2.2069     5.9666    -0.9360 H       
  34 H34           -1.5372     7.1947     1.0743 H       
  35 H35           -2.4187     6.0465     2.1106 H       
  36 H36           -2.7721     9.1256     1.6366 H       
  37 H37           -4.5492     9.0637     1.7164 H       
  38 H38           -4.4466     7.4569     3.5659 H       
  39 H39           -2.6720     7.3906     3.4449 H       
  40 H40           -2.5445     9.8060     3.9912 H       
  41 H41           -4.3191     9.8722     4.1123 H       
  42 H42           -3.2825     9.6340     6.3522 H       
  43 H43           -4.2566     8.2014     5.9433 H       
  44 H44           -2.4820     8.1351     5.8223 H       
@<TRIPOS>BOND
   1    1    2 ar
   2    1    6 ar
   3    1    8 1
   4    2    3 ar
   5    2   21 1
   6    3    4 ar
   7    3   22 1
   8    4    5 ar
   9    4   23 1
  10    5    6 ar
  11    5    7 1
  12    7   24 1
  13    7   25 1
  14    7   26 1
  15    8    9 3
  16    9   10 1
  17   10   14 2
  18   10   27 1
  19   11   12 1
  20   11   16 1
  21   11   17 1
  22   12   13 1
  23   12   28 1
  24   12   29 1
  25   13   14 1
  26   13   30 1
  27   13   31 1
  28   14   15 1
  29   15   16 1
  30   15   32 1
  31   15   33 1
  32   16   34 1
  33   16   35 1
  34   17   18 1
  35   17   36 1
  36   17   37 1
  37   18   19 1
  38   18   38 1
  39   18   39 1
  40   19   20 1
  41   19   40 1
  42   19   41 1
  43   20   42 1
  44   20   43 1
  45   20   44 1

#	End of record

