#	Name: ASD01900246
#	Creating user name:	WinNT
#	Creation time:	15. 06. 2019 19:51

#	Modifying user name:	WinNT
#	Modification time:	15. 06. 2019 19:51

#	Program:	/corina/corina34_cracker 3.40 0067  02.08.2006

@<TRIPOS>MOLECULE
ASD01900246
  58   62    0    0    0
SMALL
NO_CHARGES


@<TRIPOS>ATOM
   1 C1            -0.2437     1.6840     0.5983 C.ar    
   2 C2            -0.3023     0.3058     0.6008 C.ar    
   3 C3             0.8286    -0.4467     0.3249 C.ar    
   4 C4             2.0331     0.1712     0.0486 C.ar    
   5 C5             2.1097     1.5537     0.0443 C.ar    
   6 C6             0.9623     2.3203     0.3144 C.ar    
   7 N7             3.3026     2.2200    -0.2127 N.pl3   
   8 C8             3.2503     3.5601    -0.8077 C.3     
   9 N9             2.2065     4.3599    -0.1653 N.am    
  10 C10            1.0768     3.7891     0.2985 C.2     
  11 C11            4.6053     4.2494    -0.6228 C.3     
  12 C12            2.9506     3.4382    -2.3045 C.3     
  13 C13            2.9624     4.8323    -2.9360 C.3     
  14 N14            4.2770     5.4535    -2.7307 N.3     
  15 C15            4.5692     5.6208    -1.3014 C.3     
  16 C16            2.3848     5.7423    -0.0292 C.ar    
  17 C17            1.7319     6.6150    -0.8896 C.ar    
  18 C18            1.9082     7.9779    -0.7548 C.ar    
  19 C19            2.7373     8.4753     0.2400 C.ar    
  20 C20            3.3899     7.6041     1.0999 C.ar    
  21 C21            3.2101     6.2412     0.9700 C.ar    
  22 C22            3.6859    10.2651     1.4858 C.3     
  23 O23            2.9107     9.8175     0.3718 O.3     
  24 C24            4.3700     6.7361    -3.4407 C.3     
  25 C25            4.3105     6.4931    -4.9268 C.ar    
  26 C26            3.1613     6.7982    -5.6315 C.ar    
  27 C27            3.1067     6.5751    -6.9957 C.ar    
  28 C28            4.2026     6.0464    -7.6546 C.ar    
  29 C29            5.3515     5.7414    -6.9501 C.ar    
  30 C30            5.4081     5.9699    -5.5865 C.ar    
  31 O31            0.1600     4.4803     0.6994 O.2     
  32 Cl32           6.8539     5.5934    -4.7025 Cl      
  33 Cl33           1.6631     6.9578    -7.8807 Cl      
  34 H34           -1.1284     2.2659     0.8107 H       
  35 H35           -1.2361    -0.1906     0.8198 H       
  36 H36            0.7678    -1.5250     0.3262 H       
  37 H37            2.9109    -0.4214    -0.1627 H       
  38 H38            4.1544     1.8064    -0.0020 H       
  39 H39            4.8080     4.3747     0.4409 H       
  40 H40            5.3884     3.6403    -1.0742 H       
  41 H41            3.7107     2.8173    -2.7786 H       
  42 H42            1.9696     2.9839    -2.4435 H       
  43 H43            2.7632     4.7486    -4.0044 H       
  44 H44            2.1930     5.4483    -2.4706 H       
  45 H45            3.7937     6.2333    -0.8415 H       
  46 H46            5.5360     6.1101    -1.1832 H       
  47 H47            1.0867     6.2278    -1.6644 H       
  48 H48            1.4007     8.6567    -1.4242 H       
  49 H49            4.0352     7.9921     1.8742 H       
  50 H50            3.7144     5.5633     1.6426 H       
  51 H51            4.6896     9.8449     1.4222 H       
  52 H52            3.7461    11.3533     1.4727 H       
  53 H53            3.2132     9.9384     2.4120 H       
  54 H54            3.5396     7.3767    -3.1438 H       
  55 H55            5.3123     7.2230    -3.1895 H       
  56 H56            2.3058     7.2105    -5.1171 H       
  57 H57            4.1599     5.8719    -8.7196 H       
  58 H58            6.2067     5.3284    -7.4644 H       
@<TRIPOS>BOND
   1    1    2 ar
   2    1    6 ar
   3    1   34 1
   4    2    3 ar
   5    2   35 1
   6    3    4 ar
   7    3   36 1
   8    4    5 ar
   9    4   37 1
  10    5    7 1
  11    5    6 ar
  12    6   10 1
  13    7    8 1
  14    7   38 1
  15    8    9 1
  16    8   12 1
  17    8   11 1
  18    9   10 am
  19    9   16 1
  20   10   31 2
  21   11   15 1
  22   11   39 1
  23   11   40 1
  24   12   13 1
  25   12   41 1
  26   12   42 1
  27   13   14 1
  28   13   43 1
  29   13   44 1
  30   14   15 1
  31   14   24 1
  32   15   45 1
  33   15   46 1
  34   16   17 ar
  35   16   21 ar
  36   17   18 ar
  37   17   47 1
  38   18   19 ar
  39   18   48 1
  40   19   20 ar
  41   19   23 1
  42   20   21 ar
  43   20   49 1
  44   21   50 1
  45   22   23 1
  46   22   51 1
  47   22   52 1
  48   22   53 1
  49   24   25 1
  50   24   54 1
  51   24   55 1
  52   25   26 ar
  53   25   30 ar
  54   26   27 ar
  55   26   56 1
  56   27   28 ar
  57   27   33 1
  58   28   29 ar
  59   28   57 1
  60   29   30 ar
  61   29   58 1
  62   30   32 1

#	End of record

