#	Name: ASD02500220
#	Creating user name:	WinNT
#	Creation time:	15. 06. 2019 20:22

#	Modifying user name:	WinNT
#	Modification time:	15. 06. 2019 20:22

#	Program:	/corina/corina34_cracker 3.40 0067  02.08.2006

@<TRIPOS>MOLECULE
ASD02500220
  58   62    0    0    0
SMALL
NO_CHARGES


@<TRIPOS>ATOM
   1 N1            -1.0248     5.2842    -1.1333 N.ar    
   2 C2            -2.0601     6.0702    -1.3023 C.ar    
   3 C3            -3.0826     6.1490    -0.3590 C.ar    
   4 C4            -3.0212     5.3942     0.7775 C.ar    
   5 C5            -1.9080     4.5510     0.9555 C.ar    
   6 C6            -1.7756     3.7463     2.0982 C.ar    
   7 C7            -0.6835     2.9442     2.2335 C.ar    
   8 C8             0.3053     2.9115     1.2527 C.ar    
   9 C9             0.2090     3.6785     0.1324 C.ar    
  10 C10           -0.9034     4.5194    -0.0435 C.ar    
  11 S11            1.4745     3.6182    -1.0921 S.o2    
  12 O12            1.8985     4.9588    -1.2973 O.2     
  13 O13            2.3577     2.5743    -0.7054 O.2     
  14 N14            0.7650     3.1304    -2.5067 N.am    
  15 C15            0.2532     1.8410    -2.6201 C.ar    
  16 C16            0.3408     1.1619    -3.8346 C.ar    
  17 C17           -0.1651    -0.1142    -3.9490 C.ar    
  18 C18           -0.7665    -0.7273    -2.8453 C.ar    
  19 C19           -0.8522    -0.0430    -1.6300 C.ar    
  20 C20           -0.3397     1.2302    -1.5199 C.ar    
  21 C21           -1.3099    -2.0936    -2.9640 C.2     
  22 O22           -1.1000    -2.9097    -2.0874 O.2     
  23 N23           -2.0390    -2.4374    -4.0442 N.am    
  24 C24           -2.7049    -3.7458    -4.1116 C.3     
  25 C25           -4.1992    -3.5223    -4.3750 C.3     
  26 N26           -4.3430    -2.5952    -5.5063 N.am    
  27 C27           -3.6772    -1.2868    -5.4388 C.3     
  28 C28           -2.1875    -1.5081    -5.1730 C.3     
  29 C29           -5.0722    -2.9390    -6.5864 C.2     
  30 O30           -5.4799    -4.0773    -6.7070 O.2     
  31 C31           -5.3766    -1.9290    -7.6266 C.ar    
  32 C32           -5.9838    -2.3161    -8.8207 C.ar    
  33 N33           -5.0766    -0.6495    -7.4220 N.ar    
  34 N34           -6.2537    -1.4119    -9.7449 N.ar    
  35 C35           -5.9489    -0.1429    -9.5385 C.ar    
  36 C36           -5.3493     0.2463    -8.3495 C.ar    
  37 F37            0.9218     1.7559    -4.8999 F       
  38 H38           -2.1221     6.6729    -2.1963 H       
  39 H39           -3.9227     6.8067    -0.5263 H       
  40 H40           -3.8046     5.4432     1.5193 H       
  41 H41           -2.5353     3.7636     2.8657 H       
  42 H42           -0.5825     2.3255     3.1129 H       
  43 H43            1.1624     2.2675     1.3836 H       
  44 H44            0.7061     3.7433    -3.2562 H       
  45 H45           -0.0977    -0.6404    -4.8898 H       
  46 H46           -1.3162    -0.5143    -0.7762 H       
  47 H47           -0.4018     1.7570    -0.5792 H       
  48 H48           -2.2745    -4.3340    -4.9221 H       
  49 H49           -2.5748    -4.2716    -3.1657 H       
  50 H50           -4.6739    -4.4728    -4.6184 H       
  51 H51           -4.6667    -3.0933    -3.4888 H       
  52 H52           -3.8072    -0.7610    -6.3847 H       
  53 H53           -4.1076    -0.6987    -4.6283 H       
  54 H54           -1.7159    -0.5565    -4.9279 H       
  55 H55           -1.7195    -1.9333    -6.0608 H       
  56 H56           -6.2327    -3.3534    -8.9896 H       
  57 H57           -6.1708     0.5942   -10.2961 H       
  58 H58           -5.1061     1.2853    -8.1834 H       
@<TRIPOS>BOND
   1    1    2 ar
   2    1   10 ar
   3    2    3 ar
   4    2   38 1
   5    3    4 ar
   6    3   39 1
   7    4    5 ar
   8    4   40 1
   9    5    6 ar
  10    5   10 ar
  11    6    7 ar
  12    6   41 1
  13    7    8 ar
  14    7   42 1
  15    8    9 ar
  16    8   43 1
  17    9   10 ar
  18    9   11 1
  19   11   12 2
  20   11   13 2
  21   11   14 am
  22   14   15 1
  23   14   44 1
  24   15   16 ar
  25   15   20 ar
  26   16   17 ar
  27   16   37 1
  28   17   18 ar
  29   17   45 1
  30   18   19 ar
  31   18   21 1
  32   19   20 ar
  33   19   46 1
  34   20   47 1
  35   21   22 2
  36   21   23 am
  37   23   24 1
  38   23   28 1
  39   24   25 1
  40   24   48 1
  41   24   49 1
  42   25   26 1
  43   25   50 1
  44   25   51 1
  45   26   27 1
  46   26   29 am
  47   27   28 1
  48   27   52 1
  49   27   53 1
  50   28   54 1
  51   28   55 1
  52   29   30 2
  53   29   31 1
  54   31   32 ar
  55   31   33 ar
  56   32   34 ar
  57   32   56 1
  58   33   36 ar
  59   34   35 ar
  60   35   36 ar
  61   35   57 1
  62   36   58 1

#	End of record

