#	Name: ASD01916895
#	Creating user name:	WinNT
#	Creation time:	15. 06. 2019 20:08

#	Modifying user name:	WinNT
#	Modification time:	15. 06. 2019 20:08

#	Program:	/corina/corina34_cracker 3.40 0067  02.08.2006

@<TRIPOS>MOLECULE
ASD01916895
  63   67    0    0    0
SMALL
NO_CHARGES


@<TRIPOS>ATOM
   1 C1             0.0103     1.3064     0.1822 C.ar    
   2 C2             0.0556    -0.0523     0.4498 C.ar    
   3 C3             1.2751    -0.6937     0.5939 C.ar    
   4 C4             2.4503     0.0188     0.4715 C.ar    
   5 C5             2.4094     1.3854     0.2025 C.ar    
   6 C6             1.1807     2.0265     0.0583 C.ar    
   7 C7             3.6708     2.1559     0.0704 C.2     
   8 N8             4.9048     1.6528     0.1877 N.2     
   9 N9             3.7567     3.4432    -0.1864 N.2     
  10 N10            5.1238     3.7618    -0.2258 N.pl3   
  11 C11            5.7924     2.6094     0.0135 C.2     
  12 C12            7.2620     2.4527     0.0705 C.ar    
  13 C13            5.7104     5.0799    -0.4799 C.3     
  14 C14            5.8361     5.8328     0.8195 C.2     
  15 O15            5.4716     5.3189     1.8558 O.2     
  16 N16            6.3537     7.0772     0.8299 N.am    
  17 C17            6.4853     7.8295     2.0869 C.3     
  18 C18            7.9232     8.3477     2.1958 C.3     
  19 N19            8.2616     9.1025     0.9818 N.3     
  20 C20            8.2273     8.2415    -0.2079 C.3     
  21 C21            6.8075     7.7166    -0.4145 C.3     
  22 C22            9.4941     9.7235     1.1103 C.ar    
  23 C23           10.0090    10.4943     0.0708 C.ar    
  24 N24           10.2009     9.5966     2.2312 N.ar    
  25 C25           11.2479    11.0961     0.2489 C.ar    
  26 N26           11.8945    10.9166     1.3976 N.ar    
  27 C27           11.3729    10.1843     2.3606 C.ar    
  28 C28            8.0762     3.5652     0.2879 C.ar    
  29 F29           -1.0928    -0.7536     0.5708 F       
  30 C30            9.4453     3.4153     0.3408 C.ar    
  31 C31           10.0149     2.1591     0.1782 C.ar    
  32 C32            9.2078     1.0498    -0.0387 C.ar    
  33 C33            7.8376     1.1911    -0.0872 C.ar    
  34 O34           11.3645     2.0151     0.2310 O.3     
  35 C35           11.8835     0.6953     0.0557 C.3     
  36 O36           11.7908    11.8553    -0.7340 O.3     
  37 C37           13.0684    12.4393    -0.4719 C.3     
  38 H38           -0.9424     1.8016     0.0661 H       
  39 H39            1.3060    -1.7529     0.8028 H       
  40 H40            3.4006    -0.4819     0.5844 H       
  41 H41            1.1445     3.0855    -0.1506 H       
  42 H42            6.6974     4.9584    -0.9264 H       
  43 H43            5.0691     5.6376    -1.1624 H       
  44 H44            5.7921     8.6707     2.0845 H       
  45 H45            6.2674     7.1743     2.9303 H       
  46 H46            8.0102     8.9993     3.0653 H       
  47 H47            8.6065     7.5051     2.3024 H       
  48 H48            8.5348     8.8160    -1.0817 H       
  49 H49            8.9063     7.4004    -0.0678 H       
  50 H50            6.8006     6.9885    -1.2256 H       
  51 H51            6.1423     8.5453    -0.6569 H       
  52 H52            9.4592    10.6204    -0.8502 H       
  53 H53           11.9240    10.0585     3.2809 H       
  54 H54            7.6341     4.5425     0.4141 H       
  55 H55           10.0760     4.2758     0.5086 H       
  56 H56            9.6542     0.0745    -0.1655 H       
  57 H57            7.2107     0.3281    -0.2559 H       
  58 H58           11.4887     0.0432     0.8348 H       
  59 H59           11.5864     0.3148    -0.9216 H       
  60 H60           12.9713     0.7211     0.1202 H       
  61 H61           12.9977    13.0927     0.3977 H       
  62 H62           13.7950    11.6508    -0.2757 H       
  63 H63           13.3870    13.0199    -1.3376 H       
@<TRIPOS>BOND
   1    1    2 ar
   2    1    6 ar
   3    1   38 1
   4    2    3 ar
   5    2   29 1
   6    3    4 ar
   7    3   39 1
   8    4    5 ar
   9    4   40 1
  10    5    6 ar
  11    5    7 1
  12    6   41 1
  13    7    8 1
  14    7    9 2
  15    8   11 2
  16    9   10 1
  17   10   11 1
  18   10   13 1
  19   11   12 1
  20   12   28 ar
  21   12   33 ar
  22   13   14 1
  23   13   42 1
  24   13   43 1
  25   14   15 2
  26   14   16 am
  27   16   17 1
  28   16   21 1
  29   17   18 1
  30   17   44 1
  31   17   45 1
  32   18   19 1
  33   18   46 1
  34   18   47 1
  35   19   20 1
  36   19   22 1
  37   20   21 1
  38   20   48 1
  39   20   49 1
  40   21   50 1
  41   21   51 1
  42   22   23 ar
  43   22   24 ar
  44   23   25 ar
  45   23   52 1
  46   24   27 ar
  47   25   26 ar
  48   25   36 1
  49   26   27 ar
  50   27   53 1
  51   28   30 ar
  52   28   54 1
  53   30   31 ar
  54   30   55 1
  55   31   32 ar
  56   31   34 1
  57   32   33 ar
  58   32   56 1
  59   33   57 1
  60   34   35 1
  61   35   58 1
  62   35   59 1
  63   35   60 1
  64   36   37 1
  65   37   61 1
  66   37   62 1
  67   37   63 1

#	End of record

