#	Name: ASD03430812
#	Creating user name:	WinNT
#	Creation time:	15. 06. 2019 20:41

#	Modifying user name:	WinNT
#	Modification time:	15. 06. 2019 20:41

#	Program:	/corina/corina34_cracker 3.40 0067  02.08.2006

@<TRIPOS>MOLECULE
ASD03430812
  47   52    0    0    0
SMALL
NO_CHARGES


@<TRIPOS>ATOM
   1 C1            -0.0178     1.4608     0.0101 C.3     
   2 O2            -0.5988    -4.2900     1.4259 O.3     
   3 C3             0.7435    -4.1794     1.6373 C.ar    
   4 C4             1.2233    -2.9500     1.1929 C.ar    
   5 C5             0.0375    -2.1929     0.6597 C.3     
   6 C6            -1.1587    -2.9803     1.2126 C.3     
   7 O7             3.9982    -5.5141     2.8515 O.3     
   8 C8             2.9798    -4.7784     2.3257 C.ar    
   9 C9             3.4364    -3.5516     1.8591 C.ar    
  10 C10            4.9322    -3.5108     2.1034 C.3     
  11 C11            5.2524    -5.0003     2.3726 C.3     
  12 C12            2.5636    -2.6444     1.3003 C.ar    
  13 C13            1.6298    -5.0862     2.2060 C.ar    
  14 N14            0.0021    -0.0041     0.0020 N.am    
  15 C15            0.0225    -0.7624     1.1162 C.2     
  16 C16            0.0226    -2.1324    -0.8387 C.ar    
  17 C17            0.0258    -3.0881    -1.8294 C.ar    
  18 C18            0.0082    -2.7077    -3.1598 C.ar    
  19 C19           -0.0130    -1.3656    -3.4915 C.ar    
  20 C20           -0.0171    -0.4038    -2.5024 C.ar    
  21 C21            0.0013    -0.7775    -1.1612 C.ar    
  22 O22            0.0277    -0.3668     2.2628 O.2     
  23 C23            1.3960     1.9824    -0.0006 C.ar    
  24 C24            1.9262     2.5184    -1.1586 C.ar    
  25 C25            3.2235     2.9966    -1.1688 C.ar    
  26 C26            3.9915     2.9391    -0.0210 C.ar    
  27 C27            3.4631     2.4038     1.1386 C.ar    
  28 C28            2.1624     1.9299     1.1516 C.ar    
  29 F29            1.6448     1.4069     2.2846 F       
  30 H30           -0.5450     1.8219    -0.8730 H       
  31 H31           -0.5280     1.8123     0.9069 H       
  32 H32           -1.9672    -3.0193     0.4825 H       
  33 H33           -1.5047    -2.5496     2.1522 H       
  34 H34            5.4614    -3.1519     1.2207 H       
  35 H35            5.1683    -2.8981     2.9734 H       
  36 H36            6.0257    -5.0973     3.1347 H       
  37 H37            5.5500    -5.5036     1.4528 H       
  38 H38            2.9295    -1.6922     0.9455 H       
  39 H39            1.2658    -6.0398     2.5589 H       
  40 H40            0.0424    -4.1359    -1.5681 H       
  41 H41            0.0107    -3.4574    -3.9372 H       
  42 H42           -0.0268    -1.0688    -4.5298 H       
  43 H43           -0.0333     0.6426    -2.7693 H       
  44 H44            1.3272     2.5634    -2.0561 H       
  45 H45            3.6372     3.4150    -2.0745 H       
  46 H46            5.0049     3.3123    -0.0304 H       
  47 H47            4.0635     2.3587     2.0352 H       
@<TRIPOS>BOND
   1    1   14 1
   2    1   23 1
   3    1   30 1
   4    1   31 1
   5    2    3 1
   6    2    6 1
   7    3    4 ar
   8    3   13 ar
   9    4    5 1
  10    4   12 ar
  11    5    6 1
  12    5   15 1
  13    5   16 1
  14    6   32 1
  15    6   33 1
  16    7    8 1
  17    7   11 1
  18    8    9 ar
  19    8   13 ar
  20    9   10 1
  21    9   12 ar
  22   10   11 1
  23   10   34 1
  24   10   35 1
  25   11   36 1
  26   11   37 1
  27   12   38 1
  28   13   39 1
  29   14   15 am
  30   14   21 1
  31   15   22 2
  32   16   17 ar
  33   16   21 ar
  34   17   18 ar
  35   17   40 1
  36   18   19 ar
  37   18   41 1
  38   19   20 ar
  39   19   42 1
  40   20   21 ar
  41   20   43 1
  42   23   24 ar
  43   23   28 ar
  44   24   25 ar
  45   24   44 1
  46   25   26 ar
  47   25   45 1
  48   26   27 ar
  49   26   46 1
  50   27   28 ar
  51   27   47 1
  52   28   29 1

#	End of record

