#	Name: ASD01890499
#	Creating user name:	WinNT
#	Creation time:	15. 06. 2019 19:51

#	Modifying user name:	WinNT
#	Modification time:	15. 06. 2019 19:51

#	Program:	/corina/corina34_cracker 3.40 0067  02.08.2006

@<TRIPOS>MOLECULE
ASD01890499
  61   64    0    0    0
SMALL
NO_CHARGES


@<TRIPOS>ATOM
   1 C1            -0.0177     1.4577     0.0101 C.2     
   2 C2             0.0021    -0.0041     0.0020 C.2     
   3 C3             1.1801    -0.6630    -0.0128 C.2     
   4 C4             1.2006    -2.1699    -0.0211 C.3     
   5 C5             1.3195    -2.6704    -1.4620 C.3     
   6 O6             1.0272     2.0801     0.0034 O.2     
   7 O7            -1.1952     2.1163     0.0192 O.3     
   8 C8             2.7860     0.8742     1.0724 C.ar    
   9 C9             2.4437     0.0896    -0.0208 C.ar    
  10 C10            3.2988     0.0093    -1.1373 C.ar    
  11 C11            4.4697     0.6939    -1.1667 C.ar    
  12 C12            4.8444     1.4972    -0.0736 C.ar    
  13 C13            6.0525     2.2135    -0.0826 C.ar    
  14 C14            6.3896     2.9826     0.9893 C.ar    
  15 C15            5.5532     3.0720     2.1005 C.ar    
  16 C16            4.3750     2.3924     2.1462 C.ar    
  17 C17            3.9927     1.5877     1.0572 C.ar    
  18 C18            0.1678    -4.8631    -1.5660 C.ar    
  19 C19            1.3399    -4.1772    -1.4703 C.ar    
  20 C20            2.5581    -4.8474    -1.3803 C.ar    
  21 C21            2.6115    -6.2076    -1.3850 C.ar    
  22 C22            1.4222    -6.9500    -1.4821 C.ar    
  23 C23            1.4386    -8.3545    -1.4896 C.ar    
  24 C24            0.2629    -9.0428    -1.5847 C.ar    
  25 C25           -0.9586    -8.3677    -1.6749 C.ar    
  26 C26           -1.0082    -7.0088    -1.6707 C.ar    
  27 C27            0.1827    -6.2679    -1.5736 C.ar    
  28 O28            0.2802   -10.4015    -1.5923 O.3     
  29 C29           -0.9810   -11.0658    -1.6939 C.3     
  30 O30           -1.4631   -10.9700    -3.0356 O.3     
  31 C31           -0.7931   -11.8326    -3.9570 C.3     
  32 C32           -1.1398     3.5442     0.0267 C.3     
  33 C33           -2.5614     4.1097     0.0365 C.3     
  34 H34           -0.9258    -0.5567     0.0079 H       
  35 H35            2.0528    -2.5249     0.5584 H       
  36 H36            0.2784    -2.5482     0.4201 H       
  37 H37            0.4672    -2.3154    -2.0414 H       
  38 H38            2.2416    -2.2921    -1.9031 H       
  39 H39            2.1265     0.9375     1.9253 H       
  40 H40            3.0190    -0.6051    -1.9802 H       
  41 H41            5.1150     0.6221    -2.0297 H       
  42 H42            6.7116     2.1543    -0.9361 H       
  43 H43            7.3196     3.5315     0.9784 H       
  44 H44            5.8444     3.6893     2.9375 H       
  45 H45            3.7365     2.4708     3.0137 H       
  46 H46           -0.7692    -4.3300    -1.6310 H       
  47 H47            3.4736    -4.2793    -1.3059 H       
  48 H48            3.5631    -6.7137    -1.3150 H       
  49 H49            2.3757    -8.8871    -1.4209 H       
  50 H50           -1.8754    -8.9337    -1.7492 H       
  51 H51           -1.9587    -6.5008    -1.7409 H       
  52 H52           -0.8615   -12.1153    -1.4248 H       
  53 H53           -1.6946   -10.5961    -1.0169 H       
  54 H54            0.2686   -11.5870    -3.9785 H       
  55 H55           -0.9201   -12.8686    -3.6429 H       
  56 H56           -1.2169   -11.7003    -4.9525 H       
  57 H57           -0.6080     3.8825     0.9160 H       
  58 H58           -0.6164     3.8922    -0.8639 H       
  59 H59           -3.0931     3.7714    -0.8528 H       
  60 H60           -3.0847     3.7617     0.9271 H       
  61 H61           -2.5191     5.1989     0.0423 H       
@<TRIPOS>BOND
   1    1    2 1
   2    1    6 2
   3    1    7 1
   4    2    3 2
   5    2   34 1
   6    3    4 1
   7    3    9 1
   8    4    5 1
   9    4   35 1
  10    4   36 1
  11    5   19 1
  12    5   37 1
  13    5   38 1
  14    7   32 1
  15    8    9 ar
  16    8   17 ar
  17    8   39 1
  18    9   10 ar
  19   10   11 ar
  20   10   40 1
  21   11   12 ar
  22   11   41 1
  23   12   13 ar
  24   12   17 ar
  25   13   14 ar
  26   13   42 1
  27   14   15 ar
  28   14   43 1
  29   15   16 ar
  30   15   44 1
  31   16   17 ar
  32   16   45 1
  33   18   19 ar
  34   18   27 ar
  35   18   46 1
  36   19   20 ar
  37   20   21 ar
  38   20   47 1
  39   21   22 ar
  40   21   48 1
  41   22   23 ar
  42   22   27 ar
  43   23   24 ar
  44   23   49 1
  45   24   25 ar
  46   24   28 1
  47   25   26 ar
  48   25   50 1
  49   26   27 ar
  50   26   51 1
  51   28   29 1
  52   29   30 1
  53   29   52 1
  54   29   53 1
  55   30   31 1
  56   31   54 1
  57   31   55 1
  58   31   56 1
  59   32   33 1
  60   32   57 1
  61   32   58 1
  62   33   59 1
  63   33   60 1
  64   33   61 1

#	End of record

