#	Name: ASD01884631
#	Creating user name:	WinNT
#	Creation time:	15. 06. 2019 19:48

#	Modifying user name:	WinNT
#	Modification time:	15. 06. 2019 19:48

#	Program:	/corina/corina34_cracker 3.40 0067  02.08.2006

@<TRIPOS>MOLECULE
ASD01884631
  39   41    0    0    0
SMALL
NO_CHARGES


@<TRIPOS>ATOM
   1 C1            -0.0164     1.3576     0.0095 C.2     
   2 C2             0.0021    -0.0041     0.0020 C.2     
   3 C3             1.2440    -0.6751    -0.0134 C.2     
   4 C4             2.4024     0.0465    -0.0206 C.2     
   5 N5             2.3700     1.4024    -0.0126 N.am    
   6 C6             1.1986     2.0652     0.0017 C.2     
   7 O7             1.1911     3.2856     0.0087 O.2     
   8 C8             3.6266     2.1555    -0.0201 C.3     
   9 C9             1.2897    -2.1583    -0.0214 C.ar    
  10 C10            4.0442     2.4218    -1.4434 C.ar    
  11 C11            3.4600     3.4564    -2.1541 C.ar    
  12 C12            3.8443     3.7004    -3.4617 C.ar    
  13 C13            4.8111     2.9104    -4.0563 C.ar    
  14 C14            5.3939     1.8766    -3.3445 C.ar    
  15 C15            5.0144     1.6367    -2.0374 C.ar    
  16 Cl16           5.2932     3.2151    -5.6960 Cl      
  17 F17            2.5153     4.2272    -1.5722 F       
  18 C18            0.8125    -2.8770     1.0726 C.ar    
  19 C19            0.8555    -4.2564     1.0631 C.ar    
  20 C20            1.3731    -4.9286    -0.0341 C.ar    
  21 C21            1.8508    -4.2151    -1.1276 C.ar    
  22 C22            1.8049    -2.8351    -1.1257 C.ar    
  23 O23            1.4140    -6.2875    -0.0401 O.3     
  24 C24            0.9070    -6.9569     1.1161 C.3     
  25 F25            2.3553    -4.8725    -2.1946 F       
  26 H26           -0.9563     1.8895     0.0169 H       
  27 H27           -0.9217    -0.5635     0.0082 H       
  28 H28            3.3528    -0.4664    -0.0325 H       
  29 H29            3.4856     3.1027     0.5005 H       
  30 H30            4.4005     1.5759     0.4832 H       
  31 H31            3.3889     4.5070    -4.0171 H       
  32 H32            6.1489     1.2598    -3.8091 H       
  33 H33            5.4698     0.8297    -1.4827 H       
  34 H34            0.4095    -2.3549     1.9278 H       
  35 H35            0.4858    -4.8133     1.9115 H       
  36 H36            2.1755    -2.2806    -1.9752 H       
  37 H37            1.4779    -6.6507     1.9927 H       
  38 H38           -0.1419    -6.6961     1.2563 H       
  39 H39            0.9985    -8.0347     0.9813 H       
@<TRIPOS>BOND
   1    1    2 2
   2    1    6 1
   3    1   26 1
   4    2    3 1
   5    2   27 1
   6    3    4 2
   7    3    9 1
   8    4    5 1
   9    4   28 1
  10    5    6 am
  11    5    8 1
  12    6    7 2
  13    8   10 1
  14    8   29 1
  15    8   30 1
  16    9   18 ar
  17    9   22 ar
  18   10   11 ar
  19   10   15 ar
  20   11   12 ar
  21   11   17 1
  22   12   13 ar
  23   12   31 1
  24   13   14 ar
  25   13   16 1
  26   14   15 ar
  27   14   32 1
  28   15   33 1
  29   18   19 ar
  30   18   34 1
  31   19   20 ar
  32   19   35 1
  33   20   21 ar
  34   20   23 1
  35   21   22 ar
  36   21   25 1
  37   22   36 1
  38   23   24 1
  39   24   37 1
  40   24   38 1
  41   24   39 1

#	End of record

