#	Name: ASD01870291
#	Creating user name:	WinNT
#	Creation time:	15. 06. 2019 19:38

#	Modifying user name:	WinNT
#	Modification time:	15. 06. 2019 19:38

#	Program:	/corina/corina34_cracker 3.40 0067  02.08.2006

@<TRIPOS>MOLECULE
ASD01870291
  58   63    0    0    0
SMALL
NO_CHARGES


@<TRIPOS>ATOM
   1 N1            -0.0157     1.3058     0.0092 N.ar    
   2 C2             0.0021    -0.0041     0.0020 C.ar    
   3 C3             1.1978    -0.7210    -0.0133 C.ar    
   4 C4             2.3907    -0.0565    -0.0211 C.ar    
   5 C5             2.3684     1.3512    -0.0134 C.ar    
   6 C6             3.5575     2.0993    -0.0219 C.ar    
   7 C7             3.5104     3.4563    -0.0146 C.ar    
   8 C8             2.2774     4.1351     0.0015 C.ar    
   9 C9             1.0919     3.4179     0.0095 C.ar    
  10 C10            1.1165     2.0179     0.0022 C.ar    
  11 N11            0.6152     5.7488     0.0269 N.am    
  12 C12            1.9480     5.5754     0.0125 C.2     
  13 C13           -0.0266     4.4292     0.0262 C.3     
  14 O14            2.7655     6.4749     0.0097 O.2     
  15 C15           -0.0798     7.0384     0.0408 C.3     
  16 C16            0.3001     7.8360    -1.2084 C.3     
  17 C17           -0.4258     9.1828    -1.1938 C.3     
  18 C18           -0.0198     9.9675     0.0553 C.3     
  19 C19           -0.3997     9.1698     1.3045 C.3     
  20 C20            0.3262     7.8231     1.2899 C.3     
  21 O21           -0.0791     7.1031    -2.3751 O.3     
  22 C22            4.8890     1.3937    -0.0385 C.3     
  23 C23            5.9881     1.9485    -2.2238 C.ar    
  24 C24            5.2606     1.0557    -1.4593 C.ar    
  25 C25            4.8775    -0.1547    -2.0161 C.ar    
  26 C26            5.2422    -0.4231    -3.3268 C.ar    
  27 C27            5.9701     0.5181    -4.0294 C.ar    
  28 N28            6.3170     1.6598    -3.4676 N.ar    
  29 C29            6.3718     0.2370    -5.4544 C.3     
  30 C30            7.6556    -0.5638    -5.6817 C.3     
  31 C31            6.2938    -1.2126    -5.9376 C.3     
  32 H32           -0.9340    -0.5427     0.0084 H       
  33 H33            1.1805    -1.8009    -0.0185 H       
  34 H34            3.3260    -0.5962    -0.0326 H       
  35 H35            4.4304     4.0219    -0.0209 H       
  36 H36           -0.6482     4.3152    -0.8618 H       
  37 H37           -0.6302     4.3056     0.9253 H       
  38 H38           -1.1567     6.8706     0.0512 H       
  39 H39            1.3770     8.0038    -1.2188 H       
  40 H40           -0.1551     9.7510    -2.0838 H       
  41 H41           -1.5027     9.0150    -1.1835 H       
  42 H42            1.0572    10.1352     0.0449 H       
  43 H43           -0.5369    10.9269     0.0657 H       
  44 H44           -0.1105     9.7289     2.1944 H       
  45 H45           -1.4766     9.0021     1.3149 H       
  46 H46            0.0556     7.2548     2.1799 H       
  47 H47            1.4031     7.9908     1.2795 H       
  48 H48            0.1321     7.5500    -3.2062 H       
  49 H49            5.6504     2.0446     0.3912 H       
  50 H50            4.8218     0.4770     0.5473 H       
  51 H51            6.2866     2.8955    -1.7989 H       
  52 H52            4.3089    -0.8717    -1.4425 H       
  53 H53            4.9612    -1.3561    -3.7924 H       
  54 H54            6.1338     1.0210    -6.1734 H       
  55 H55            8.2619    -0.3069    -6.5503 H       
  56 H56            8.2095    -0.8874    -4.8005 H       
  57 H57            5.9518    -1.9630    -5.2248 H       
  58 H58            6.0042    -1.3826    -6.9746 H       
@<TRIPOS>BOND
   1    1    2 ar
   2    1   10 ar
   3    2    3 ar
   4    2   32 1
   5    3    4 ar
   6    3   33 1
   7    4    5 ar
   8    4   34 1
   9    5    6 ar
  10    5   10 ar
  11    6    7 ar
  12    6   22 1
  13    7    8 ar
  14    7   35 1
  15    8    9 ar
  16    8   12 1
  17    9   10 ar
  18    9   13 1
  19   11   12 am
  20   11   13 1
  21   11   15 1
  22   12   14 2
  23   13   36 1
  24   13   37 1
  25   15   16 1
  26   15   20 1
  27   15   38 1
  28   16   17 1
  29   16   21 1
  30   16   39 1
  31   17   18 1
  32   17   40 1
  33   17   41 1
  34   18   19 1
  35   18   42 1
  36   18   43 1
  37   19   20 1
  38   19   44 1
  39   19   45 1
  40   20   46 1
  41   20   47 1
  42   21   48 1
  43   22   24 1
  44   22   49 1
  45   22   50 1
  46   23   24 ar
  47   23   28 ar
  48   23   51 1
  49   24   25 ar
  50   25   26 ar
  51   25   52 1
  52   26   27 ar
  53   26   53 1
  54   27   28 ar
  55   27   29 1
  56   29   30 1
  57   29   31 1
  58   29   54 1
  59   30   31 1
  60   30   55 1
  61   30   56 1
  62   31   57 1
  63   31   58 1

#	End of record

