#	Name: ASD03731858
#	Creating user name:	WinNT
#	Creation time:	15. 06. 2019 20:46

#	Modifying user name:	WinNT
#	Modification time:	15. 06. 2019 20:46

#	Program:	/corina/corina34_cracker 3.40 0067  02.08.2006

@<TRIPOS>MOLECULE
ASD03731858
  37   38    0    0    0
SMALL
NO_CHARGES


@<TRIPOS>ATOM
   1 C1             0.2307     1.4573     0.3424 C.2     
   2 C2             0.1856    -0.0142     0.2473 C.ar    
   3 C3             1.3626    -0.7389     0.0384 C.ar    
   4 C4             1.3174    -2.1114    -0.0494 C.ar    
   5 C5             0.1010    -2.7784     0.0697 C.ar    
   6 C6            -1.0729    -2.0594     0.2779 C.ar    
   7 C7            -1.0335    -0.6871     0.3718 C.ar    
   8 O8             1.2923     2.0410     0.2390 O.2     
   9 N9            -0.9057     2.1551     0.5383 N.am    
  10 S10           -0.8551     3.8068     0.6451 S.o2    
  11 O11           -2.2058     4.1848     0.8730 O.2     
  12 O12            0.1514     4.0647     1.6144 O.2     
  13 N13            0.0585    -4.1658    -0.0199 N.pl3   
  14 C14           -0.9162    -4.8816     0.6801 C.ar    
  15 C15           -1.3909    -6.0865     0.1768 C.ar    
  16 C16           -2.3542    -6.7912     0.8710 C.ar    
  17 C17           -2.8468    -6.2987     2.0660 C.ar    
  18 C18           -2.3766    -5.1000     2.5697 C.ar    
  19 C19           -1.4086    -4.3930     1.8835 C.ar    
  20 C20           -2.8697    -8.0982     0.3260 C.3     
  21 F21           -2.0843    -9.1487     0.8126 F       
  22 F22           -4.1963    -8.2814     0.7308 F       
  23 F23           -2.8072    -8.0778    -1.0715 F       
  24 C24           -0.3106     4.3501    -0.9978 C.3     
  25 H25            2.3064    -0.2221    -0.0545 H       
  26 H26            2.2263    -2.6719    -0.2112 H       
  27 H27           -2.0150    -2.5795     0.3695 H       
  28 H28           -1.9439    -0.1302     0.5374 H       
  29 H29           -1.7531     1.6897     0.6169 H       
  30 H30            0.7056    -4.6364    -0.5683 H       
  31 H31           -1.0072    -6.4713    -0.7566 H       
  32 H32           -3.6007    -6.8516     2.6066 H       
  33 H33           -2.7634    -4.7183     3.5030 H       
  34 H34           -1.0383    -3.4591     2.2799 H       
  35 H35           -1.0260     4.0125    -1.7477 H       
  36 H36           -0.2486     5.4381    -1.0187 H       
  37 H37            0.6699     3.9261    -1.2143 H       
@<TRIPOS>BOND
   1    1    2 1
   2    1    8 2
   3    1    9 am
   4    2    3 ar
   5    2    7 ar
   6    3    4 ar
   7    3   25 1
   8    4    5 ar
   9    4   26 1
  10    5    6 ar
  11    5   13 1
  12    6    7 ar
  13    6   27 1
  14    7   28 1
  15    9   10 am
  16    9   29 1
  17   10   11 2
  18   10   12 2
  19   10   24 1
  20   13   14 1
  21   13   30 1
  22   14   15 ar
  23   14   19 ar
  24   15   16 ar
  25   15   31 1
  26   16   17 ar
  27   16   20 1
  28   17   18 ar
  29   17   32 1
  30   18   19 ar
  31   18   33 1
  32   19   34 1
  33   20   21 1
  34   20   22 1
  35   20   23 1
  36   24   35 1
  37   24   36 1
  38   24   37 1

#	End of record

