#	Name: ASD03332176
#	Creating user name:	WinNT
#	Creation time:	15. 06. 2019 20:40

#	Modifying user name:	WinNT
#	Modification time:	15. 06. 2019 20:40

#	Program:	/corina/corina34_cracker 3.40 0067  02.08.2006

@<TRIPOS>MOLECULE
ASD03332176
  57   59    0    0    0
SMALL
NO_CHARGES


@<TRIPOS>ATOM
   1 C1            -0.3932     2.0897    -0.9140 C.2     
   2 N2            -0.5018     0.8381    -1.4181 N.pl3   
   3 C3             0.7564     0.3165    -1.4989 C.2     
   4 N4             1.6076     1.2054    -1.0435 N.2     
   5 C5             0.9287     2.3121    -0.6707 C.2     
   6 C6             1.5132     3.5399    -0.1028 C.2     
   7 O7             0.7940     4.4745     0.1946 O.2     
   8 N8             2.8447     3.6271     0.0870 N.am    
   9 C9            -1.7559     0.1755    -1.7868 C.3     
  10 C10           -2.6051     1.1370    -2.6239 C.3     
  11 C11           -3.4641     1.9997    -1.7048 C.3     
  12 N12           -2.7659     2.2869    -0.4499 N.3     
  13 C13           -1.5320     3.0502    -0.6878 C.3     
  14 C14            1.1030    -1.0267    -2.0135 C.ar    
  15 C15            2.3250    -1.2381    -2.6525 C.ar    
  16 C16            2.6423    -2.4930    -3.1303 C.ar    
  17 C17            1.7514    -3.5403    -2.9771 C.ar    
  18 C18            0.5378    -3.3370    -2.3448 C.ar    
  19 C19            0.2115    -2.0884    -1.8568 C.ar    
  20 C20            3.4257     4.8477     0.6516 C.3     
  21 C21            3.3600     4.7846     2.1789 C.3     
  22 C22            4.8631     4.9682     0.2151 C.2     
  23 C23            1.8970     4.7777     2.6266 C.3     
  24 C24            4.0486     3.5084     2.6667 C.3     
  25 F25            4.0080     5.9002     2.7200 F       
  26 N26            5.4682     6.1725     0.2140 N.am    
  27 O27            5.4753     3.9816    -0.1350 O.2     
  28 C28            6.8292     6.3079    -0.3112 C.3     
  29 C29           -3.6460     2.9895     0.4933 C.3     
  30 H30            3.4182     2.8817    -0.1502 H       
  31 H31           -1.5375    -0.7193    -2.3697 H       
  32 H32           -2.3011    -0.1006    -0.8843 H       
  33 H33           -1.9507     1.7776    -3.2152 H       
  34 H34           -3.2498     0.5646    -3.2908 H       
  35 H35           -3.6959     2.9382    -2.2083 H       
  36 H36           -4.3931     1.4735    -1.4852 H       
  37 H37           -1.3161     3.6735     0.1799 H       
  38 H38           -1.6574     3.6804    -1.5683 H       
  39 H39            3.0210    -0.4212    -2.7733 H       
  40 H40            3.5880    -2.6580    -3.6251 H       
  41 H41            2.0042    -4.5207    -3.3531 H       
  42 H42           -0.1536    -4.1585    -2.2286 H       
  43 H43           -0.7360    -1.9310    -1.3630 H       
  44 H44            2.8652     5.7136     0.2992 H       
  45 H45            1.4200     3.8553     2.2953 H       
  46 H46            1.8494     4.8413     3.7137 H       
  47 H47            1.3793     5.6317     2.1897 H       
  48 H48            5.0909     3.5133     2.3477 H       
  49 H49            4.0019     3.4635     3.7548 H       
  50 H50            3.5438     2.6392     2.2451 H       
  51 H51            5.0027     6.9496     0.5608 H       
  52 H52            7.5049     5.6741     0.2631 H       
  53 H53            6.8468     6.0033    -1.3576 H       
  54 H54            7.1483     7.3469    -0.2298 H       
  55 H55           -4.5150     2.3685     0.7110 H       
  56 H56           -3.1026     3.1905     1.4166 H       
  57 H57           -3.9736     3.9309     0.0523 H       
@<TRIPOS>BOND
   1    1    2 1
   2    1    5 2
   3    1   13 1
   4    2    3 1
   5    2    9 1
   6    3    4 2
   7    3   14 1
   8    4    5 1
   9    5    6 1
  10    6    7 2
  11    6    8 am
  12    8   20 1
  13    8   30 1
  14    9   10 1
  15    9   31 1
  16    9   32 1
  17   10   11 1
  18   10   33 1
  19   10   34 1
  20   11   12 1
  21   11   35 1
  22   11   36 1
  23   12   13 1
  24   12   29 1
  25   13   37 1
  26   13   38 1
  27   14   15 ar
  28   14   19 ar
  29   15   16 ar
  30   15   39 1
  31   16   17 ar
  32   16   40 1
  33   17   18 ar
  34   17   41 1
  35   18   19 ar
  36   18   42 1
  37   19   43 1
  38   20   21 1
  39   20   22 1
  40   20   44 1
  41   21   23 1
  42   21   24 1
  43   21   25 1
  44   22   26 am
  45   22   27 2
  46   23   45 1
  47   23   46 1
  48   23   47 1
  49   24   48 1
  50   24   49 1
  51   24   50 1
  52   26   28 1
  53   26   51 1
  54   28   52 1
  55   28   53 1
  56   28   54 1
  57   29   55 1
  58   29   56 1
  59   29   57 1

#	End of record

