#	Name: ASD01901184
#	Creating user name:	WinNT
#	Creation time:	15. 06. 2019 19:53

#	Modifying user name:	WinNT
#	Modification time:	15. 06. 2019 19:53

#	Program:	/corina/corina34_cracker 3.40 0067  02.08.2006

@<TRIPOS>MOLECULE
ASD01901184
  50   53    0    0    0
SMALL
NO_CHARGES


@<TRIPOS>ATOM
   1 C1             2.9656     1.4402    -0.5572 C.ar    
   2 C2             3.1500     0.0778    -0.4484 C.ar    
   3 C3             3.2083    -0.5186     0.7990 C.ar    
   4 C4             3.0822     0.2460     1.9455 C.ar    
   5 C5             2.8978     1.6096     1.8524 C.ar    
   6 C6             2.8379     2.2188     0.5962 C.ar    
   7 C7             2.6462     3.6341     0.4913 C.1     
   8 C8             2.4891     4.7943     0.4053 C.1     
   9 C9             2.2974     6.2095     0.3005 C.ar    
  10 C10            2.1690     6.9942     1.4483 C.ar    
  11 N11            1.9921     8.2961     1.3555 N.ar    
  12 C12            1.9294     8.9105     0.1851 C.ar    
  13 C13            2.0488     8.1972    -1.0060 C.ar    
  14 C14            2.2415     6.8293    -0.9570 C.ar    
  15 N15            1.7403    10.2942     0.1430 N.am    
  16 C16            2.8084    11.1110     0.1953 C.2     
  17 C17            2.6121    12.6052     0.2511 C.3     
  18 C18            1.3771    12.9812    -0.5707 C.3     
  19 N19            0.2716    12.0833    -0.2312 N.am    
  20 C20            0.4953    10.7892     0.0453 C.2     
  21 O21            3.9280    10.6459     0.1979 O.2     
  22 O22           -0.4527    10.0482     0.2161 O.2     
  23 C23            0.9786    14.4236    -0.2518 C.3     
  24 C24            1.6894    12.8599    -2.0400 C.ar    
  25 C25            0.8995    12.0714    -2.8629 C.ar    
  26 C26            1.2245    11.9894    -4.2081 C.ar    
  27 C27            2.3173    12.6914    -4.6810 C.ar    
  28 N28            3.0462    13.4317    -3.8690 N.ar    
  29 C29            2.7632    13.5375    -2.5853 C.ar    
  30 F30            1.9827     8.8358    -2.1946 F       
  31 C31           -1.0975    12.6037    -0.1983 C.3     
  32 H32            2.9244     1.9048    -1.5313 H       
  33 H33            3.2488    -0.5253    -1.3389 H       
  34 H34            3.3525    -1.5860     0.8780 H       
  35 H35            3.1280    -0.2264     2.9156 H       
  36 H36            2.7992     2.2049     2.7480 H       
  37 H37            2.2148     6.5290     2.4218 H       
  38 H38            2.3418     6.2515    -1.8639 H       
  39 H39            2.4690    12.9152     1.2863 H       
  40 H40            3.4895    13.1034    -0.1612 H       
  41 H41            0.7522    14.5115     0.8108 H       
  42 H42            1.8016    15.0922    -0.5045 H       
  43 H43            0.0982    14.6946    -0.8345 H       
  44 H44            0.0515    11.5336    -2.4653 H       
  45 H45            0.6315    11.3844    -4.8780 H       
  46 H46            2.5773    12.6325    -5.7276 H       
  47 H47            3.3804    14.1575    -1.9520 H       
  48 H48           -1.5506    12.4968    -1.1839 H       
  49 H49           -1.6814    12.0442     0.5326 H       
  50 H50           -1.0791    13.6572     0.0809 H       
@<TRIPOS>BOND
   1    1    2 ar
   2    1    6 ar
   3    1   32 1
   4    2    3 ar
   5    2   33 1
   6    3    4 ar
   7    3   34 1
   8    4    5 ar
   9    4   35 1
  10    5    6 ar
  11    5   36 1
  12    6    7 1
  13    7    8 3
  14    8    9 1
  15    9   10 ar
  16    9   14 ar
  17   10   11 ar
  18   10   37 1
  19   11   12 ar
  20   12   13 ar
  21   12   15 1
  22   13   14 ar
  23   13   30 1
  24   14   38 1
  25   15   16 am
  26   15   20 am
  27   16   17 1
  28   16   21 2
  29   17   18 1
  30   17   39 1
  31   17   40 1
  32   18   19 1
  33   18   23 1
  34   18   24 1
  35   19   20 am
  36   19   31 1
  37   20   22 2
  38   23   41 1
  39   23   42 1
  40   23   43 1
  41   24   25 ar
  42   24   29 ar
  43   25   26 ar
  44   25   44 1
  45   26   27 ar
  46   26   45 1
  47   27   28 ar
  48   27   46 1
  49   28   29 ar
  50   29   47 1
  51   31   48 1
  52   31   49 1
  53   31   50 1

#	End of record

