#	Name: ASD05723014
#	Creating user name:	WinNT
#	Creation time:	15. 06. 2019 21:02

#	Modifying user name:	WinNT
#	Modification time:	15. 06. 2019 21:02

#	Program:	/corina/corina34_cracker 3.40 0067  02.08.2006

@<TRIPOS>MOLECULE
ASD05723014
  53   56    0    0    0
SMALL
NO_CHARGES


@<TRIPOS>ATOM
   1 C1             0.4026     1.0967     0.8493 C.3     
   2 N2             0.2532    -0.3216     1.1846 N.am    
   3 C3            -0.9088    -0.9554     0.9303 C.2     
   4 O4            -1.8330    -0.3501     0.4226 O.2     
   5 N5            -1.0462    -2.2602     1.2387 N.am    
   6 C6            -2.2864    -2.8860     1.0909 C.ar    
   7 C7            -2.3482    -4.2285     0.7348 C.ar    
   8 C8            -3.5703    -4.8481     0.5883 C.ar    
   9 C9            -4.7460    -4.1273     0.7981 C.ar    
  10 C10           -4.6813    -2.7805     1.1558 C.ar    
  11 C11           -3.4566    -2.1668     1.3057 C.ar    
  12 C12           -6.0614    -4.7909     0.6409 C.ar    
  13 N13           -6.0928    -6.0701     0.3002 N.ar    
  14 C14           -7.2510    -6.7039     0.1490 C.ar    
  15 C15           -8.4513    -5.9918     0.3574 C.ar    
  16 C16           -9.5109    -6.8944     0.1330 C.2     
  17 N17           -9.0075    -8.0537    -0.1839 N.2     
  18 N18           -7.6090    -7.9776    -0.1851 N.pl3   
  19 C19           -6.6892    -9.0756    -0.4926 C.3     
  20 C20           -8.3690    -4.6291     0.7195 C.ar    
  21 N21           -7.1646    -4.0814     0.8523 N.ar    
  22 C22           -9.5893    -3.8343     0.9503 C.2     
  23 C23          -10.9213    -4.5331     0.9528 C.3     
  24 C24          -11.9723    -3.6318     1.6067 C.3     
  25 O25          -11.8663    -2.3225     1.0345 O.3     
  26 C26          -10.6610    -1.6473     1.3994 C.3     
  27 C27           -9.4748    -2.5361     1.1528 C.2     
  28 C28            1.8056     1.5675     1.2375 C.3     
  29 F29            1.9483     2.9219     0.9173 F       
  30 C30           -6.3471    -9.8297     0.7940 C.3     
  31 F31           -7.5188   -10.3466     1.3572 F       
  32 F32           -5.4688   -10.8783     0.5004 F       
  33 F33           -5.7409    -8.9537     1.7008 F       
  34 H34            0.2567     1.2341    -0.2221 H       
  35 H35           -0.3400     1.6792     1.3947 H       
  36 H36            0.9905    -0.8045     1.5896 H       
  37 H37           -0.2840    -2.7647     1.5633 H       
  38 H38           -1.4376    -4.7861     0.5724 H       
  39 H39           -3.6178    -5.8908     0.3110 H       
  40 H40           -5.5901    -2.2202     1.3185 H       
  41 H41           -3.4059    -1.1251     1.5863 H       
  42 H42          -10.5632    -6.6638     0.2110 H       
  43 H43           -7.1616    -9.7582    -1.1991 H       
  44 H44           -5.7763    -8.6729    -0.9314 H       
  45 H45          -11.2183    -4.7519    -0.0729 H       
  46 H46          -10.8418    -5.4641     1.5139 H       
  47 H47          -12.9678    -4.0341     1.4191 H       
  48 H48          -11.7919    -3.5780     2.6803 H       
  49 H49          -10.5631    -0.7372     0.8075 H       
  50 H50          -10.6990    -1.3860     2.4570 H       
  51 H51           -8.4900    -2.0931     1.1335 H       
  52 H52            1.9515     1.4301     2.3089 H       
  53 H53            2.5482     0.9850     0.6920 H       
@<TRIPOS>BOND
   1    1    2 1
   2    1   28 1
   3    1   34 1
   4    1   35 1
   5    2    3 am
   6    2   36 1
   7    3    4 2
   8    3    5 am
   9    5    6 1
  10    5   37 1
  11    6    7 ar
  12    6   11 ar
  13    7    8 ar
  14    7   38 1
  15    8    9 ar
  16    8   39 1
  17    9   10 ar
  18    9   12 1
  19   10   11 ar
  20   10   40 1
  21   11   41 1
  22   12   13 ar
  23   12   21 ar
  24   13   14 ar
  25   14   15 ar
  26   14   18 1
  27   15   16 1
  28   15   20 ar
  29   16   17 2
  30   16   42 1
  31   17   18 1
  32   18   19 1
  33   19   30 1
  34   19   43 1
  35   19   44 1
  36   20   21 ar
  37   20   22 1
  38   22   23 1
  39   22   27 2
  40   23   24 1
  41   23   45 1
  42   23   46 1
  43   24   25 1
  44   24   47 1
  45   24   48 1
  46   25   26 1
  47   26   27 1
  48   26   49 1
  49   26   50 1
  50   27   51 1
  51   28   29 1
  52   28   52 1
  53   28   53 1
  54   30   31 1
  55   30   32 1
  56   30   33 1

#	End of record

