#	Name: ASD09116482
#	Creating user name:	WinNT
#	Creation time:	15. 06. 2019 21:21

#	Modifying user name:	WinNT
#	Modification time:	15. 06. 2019 21:21

#	Program:	/corina/corina34_cracker 3.40 0067  02.08.2006

@<TRIPOS>MOLECULE
ASD09116482
  66   71    0    0    0
SMALL
NO_CHARGES


@<TRIPOS>ATOM
   1 N1             0.3948     0.7335    -0.8316 N.2     
   2 N2             0.5526    -0.6617    -0.8440 N.pl3   
   3 C3             1.5918     1.2529    -0.6988 C.2     
   4 N4             2.4908     0.2642    -0.6273 N.2     
   5 C5             1.8792    -0.8977    -0.7134 C.2     
   6 N6             2.4843    -2.1395    -0.6766 N.pl3   
   7 C7            -0.4585    -1.6166    -0.9663 C.ar    
   8 N8             1.8811     2.6163    -0.6414 N.pl3   
   9 C9             3.1889     3.0439    -0.3840 C.ar    
  10 C10            3.6395     4.2514    -0.9014 C.ar    
  11 C11            4.0347     2.2638     0.3936 C.ar    
  12 C12            5.3247     2.6865     0.6470 C.ar    
  13 C13            5.7758     3.8899     0.1251 C.ar    
  14 C14            4.9299     4.6725    -0.6469 C.ar    
  15 N15           -0.1799    -2.8181    -1.4494 N.ar    
  16 N16           -1.0754    -3.7293    -1.5917 N.ar    
  17 C17           -2.3394    -3.5174    -1.2618 C.ar    
  18 C18           -2.7227    -2.2856    -0.7236 C.ar    
  19 C19           -1.7631    -1.3068    -0.5738 C.ar    
  20 C20           -3.3832    -4.5466    -1.4752 C.ar    
  21 C21           -4.5656    -4.1842    -2.1223 C.ar    
  22 C22           -4.7258    -2.7788    -2.6337 C.3     
  23 C23           -5.0426    -1.8066    -1.5006 C.3     
  24 C24           -4.1449    -2.0706    -0.2946 C.3     
  25 C25           -3.2015    -5.8543    -1.0388 C.ar    
  26 C26           -4.2038    -6.7851    -1.2324 C.ar    
  27 C27           -5.3825    -6.4168    -1.8551 C.ar    
  28 C28           -5.5637    -5.1183    -2.2990 C.ar    
  29 O29            7.0462     4.3056     0.3755 O.3     
  30 C30            8.4801     2.3637     0.5072 C.3     
  31 C31            7.8228     3.5125     1.2755 C.3     
  32 N32            9.2952     1.5607     1.4276 N.3     
  33 C33           10.3753     2.3620     2.0172 C.3     
  34 C34            9.7746     3.5107     2.8306 C.3     
  35 C35            8.9101     4.3810     1.9142 C.3     
  36 C36            9.8303     0.3697     0.7546 C.3     
  37 H37            3.4471    -2.2072    -0.5798 H       
  38 H38            1.9463    -2.9435    -0.7477 H       
  39 H39            1.1761     3.2679    -0.7799 H       
  40 H40            2.9811     4.8607    -1.5028 H       
  41 H41            3.6835     1.3269     0.8003 H       
  42 H42            5.9825     2.0801     1.2519 H       
  43 H43            5.2819     5.6094    -1.0529 H       
  44 H44           -2.0124    -0.3343    -0.1757 H       
  45 H45           -3.8014    -2.4692    -3.1212 H       
  46 H46           -5.5369    -2.7546    -3.3615 H       
  47 H47           -4.8847    -0.7859    -1.8488 H       
  48 H48           -6.0849    -1.9271    -1.2052 H       
  49 H49           -4.4996    -2.9585     0.2287 H       
  50 H50           -4.1905    -1.2157     0.3801 H       
  51 H51           -2.2814    -6.1409    -0.5513 H       
  52 H52           -4.0664    -7.8026    -0.8973 H       
  53 H53           -6.1661    -7.1466    -1.9961 H       
  54 H54           -6.4870    -4.8369    -2.7834 H       
  55 H55            7.7082     1.7353     0.0630 H       
  56 H56            9.1151     2.7699    -0.2802 H       
  57 H57            7.1763     3.1069     2.0537 H       
  58 H58           10.9800     1.7322     2.6699 H       
  59 H59           11.0015     2.7681     1.2228 H       
  60 H60            9.1594     3.1051     3.6338 H       
  61 H61           10.5768     4.1143     3.2552 H       
  62 H62            9.5326     4.8181     1.1334 H       
  63 H63            8.4455     5.1754     2.4983 H       
  64 H64           10.4523     0.6763    -0.0863 H       
  65 H65           10.4299    -0.2070     1.4589 H       
  66 H66            9.0057    -0.2439     0.3919 H       
@<TRIPOS>BOND
   1    1    2 1
   2    1    3 2
   3    2    7 1
   4    2    5 1
   5    3    4 1
   6    3    8 1
   7    4    5 2
   8    5    6 1
   9    6   37 1
  10    6   38 1
  11    7   15 ar
  12    7   19 ar
  13    8    9 1
  14    8   39 1
  15    9   10 ar
  16    9   11 ar
  17   10   14 ar
  18   10   40 1
  19   11   12 ar
  20   11   41 1
  21   12   13 ar
  22   12   42 1
  23   13   14 ar
  24   13   29 1
  25   14   43 1
  26   15   16 ar
  27   16   17 ar
  28   17   18 ar
  29   17   20 1
  30   18   19 ar
  31   18   24 1
  32   19   44 1
  33   20   21 ar
  34   20   25 ar
  35   21   22 1
  36   21   28 ar
  37   22   23 1
  38   22   45 1
  39   22   46 1
  40   23   24 1
  41   23   47 1
  42   23   48 1
  43   24   49 1
  44   24   50 1
  45   25   26 ar
  46   25   51 1
  47   26   27 ar
  48   26   52 1
  49   27   28 ar
  50   27   53 1
  51   28   54 1
  52   29   31 1
  53   30   31 1
  54   30   32 1
  55   30   55 1
  56   30   56 1
  57   31   35 1
  58   31   57 1
  59   32   33 1
  60   32   36 1
  61   33   34 1
  62   33   58 1
  63   33   59 1
  64   34   35 1
  65   34   60 1
  66   34   61 1
  67   35   62 1
  68   35   63 1
  69   36   64 1
  70   36   65 1
  71   36   66 1

#	End of record

