#	Name: ASD07930462
#	Creating user name:	WinNT
#	Creation time:	15. 06. 2019 21:12

#	Modifying user name:	WinNT
#	Modification time:	15. 06. 2019 21:12

#	Program:	/corina/corina34_cracker 3.40 0067  02.08.2006

@<TRIPOS>MOLECULE
ASD07930462
  48   50    0    0    0
SMALL
NO_CHARGES


@<TRIPOS>ATOM
   1 C1            -0.0237     1.5451    -0.0201 C.3     
   2 Cl2            2.7366    11.2392     8.9928 Cl      
   3 N3             2.1227     1.2429     2.0324 N.2     
   4 N4             2.7594     3.3813     1.3373 N.pl3   
   5 C5             3.6749     3.8760     0.3038 C.3     
   6 C6             2.9014     4.0669    -1.0081 C.3     
   7 S7             2.1158     2.4834    -1.4437 S.o2    
   8 N8             1.3510     2.0516    -0.0277 N.am    
   9 C9             2.0803     2.1958     1.1441 C.2     
  10 C10            4.8004     2.8618     0.0904 C.3     
  11 C11            4.2604     5.1945     0.7394 C.ar    
  12 C12            3.8262     5.7902     1.9070 C.ar    
  13 C13            4.3661     7.0054     2.3080 C.ar    
  14 C14            5.3416     7.6188     1.5333 C.ar    
  15 C15            5.7731     7.0195     0.3660 C.ar    
  16 C16            5.2376     5.8053    -0.0289 C.ar    
  17 N17            3.9271     7.6110     3.4907 N.am    
  18 C18            4.7929     8.3094     4.2518 C.2     
  19 O19            5.9737     8.3325     3.9637 O.2     
  20 O20            1.0601     2.6831    -2.3737 O.2     
  21 O21            3.0947     1.4730    -1.6438 O.2     
  22 F22            5.6610     5.2209    -1.1710 F       
  23 C23            4.3064     9.0476     5.4375 C.ar    
  24 C24            5.2081     9.7692     6.2220 C.ar    
  25 C25            4.7349    10.4569     7.3320 C.ar    
  26 C26            3.3798    10.3983     7.6170 C.ar    
  27 C27            2.5417     9.6604     6.7919 C.ar    
  28 N28            3.0142     9.0231     5.7444 N.ar    
  29 C29           -0.0036     0.0153    -0.0350 C.3     
  30 F30            6.5214     9.7978     5.9063 F       
  31 H31           -0.5341     1.8930     0.8780 H       
  32 H32           -0.5503     1.9102    -0.9018 H       
  33 H33            2.6376     1.3608     2.8459 H       
  34 H34            2.6345     3.8847     2.1570 H       
  35 H35            2.1367     4.8324    -0.8758 H       
  36 H36            3.5885     4.3662    -1.7996 H       
  37 H37            4.3758     1.9092    -0.2265 H       
  38 H38            5.4805     3.2300    -0.6778 H       
  39 H39            5.3468     2.7236     1.0234 H       
  40 H40            3.0670     5.3116     2.5079 H       
  41 H41            5.7625     8.5640     1.8431 H       
  42 H42            6.5318     7.4963    -0.2368 H       
  43 H43            2.9998     7.5282     3.7629 H       
  44 H44            5.4073    11.0239     7.9587 H       
  45 H45            1.4854     9.6128     7.0120 H       
  46 H46            0.5068    -0.3326    -0.9330 H       
  47 H47            0.5230    -0.3498     0.8468 H       
  48 H48           -1.0264    -0.3615    -0.0294 H       
@<TRIPOS>BOND
   1    1   29 1
   2    1    8 1
   3    1   31 1
   4    1   32 1
   5    2   26 1
   6    3    9 2
   7    3   33 1
   8    4    5 1
   9    4    9 1
  10    4   34 1
  11    5    6 1
  12    5   10 1
  13    5   11 1
  14    6    7 1
  15    6   35 1
  16    6   36 1
  17    7    8 am
  18    7   20 2
  19    7   21 2
  20    8    9 1
  21   10   37 1
  22   10   38 1
  23   10   39 1
  24   11   12 ar
  25   11   16 ar
  26   12   13 ar
  27   12   40 1
  28   13   14 ar
  29   13   17 1
  30   14   15 ar
  31   14   41 1
  32   15   16 ar
  33   15   42 1
  34   16   22 1
  35   17   18 am
  36   17   43 1
  37   18   19 2
  38   18   23 1
  39   23   24 ar
  40   23   28 ar
  41   24   25 ar
  42   24   30 1
  43   25   26 ar
  44   25   44 1
  45   26   27 ar
  46   27   28 ar
  47   27   45 1
  48   29   46 1
  49   29   47 1
  50   29   48 1

#	End of record

