#	Name: ASD01870178
#	Creating user name:	WinNT
#	Creation time:	15. 06. 2019 19:38

#	Modifying user name:	WinNT
#	Modification time:	15. 06. 2019 19:38

#	Program:	/corina/corina34_cracker 3.40 0067  02.08.2006

@<TRIPOS>MOLECULE
ASD01870178
  65   70    0    0    0
SMALL
NO_CHARGES


@<TRIPOS>ATOM
   1 C1            -0.0168     1.3896     0.0097 C.ar    
   2 C2             0.0021    -0.0041     0.0020 C.ar    
   3 C3             1.1949    -0.6694    -0.0129 C.ar    
   4 C4             2.3801     0.0896    -0.0201 C.ar    
   5 C5             2.2888     1.5050    -0.0117 C.ar    
   6 N6             1.0882     2.0936     0.0029 N.ar    
   7 C7             3.6422    -0.5284    -0.0349 C.ar    
   8 C8             4.7712     0.2254    -0.0412 C.ar    
   9 C9             4.7001     1.6316    -0.0331 C.ar    
  10 C10            3.4670     2.2625    -0.0189 C.ar    
  11 C11            5.7518     2.6693    -0.0373 C.2     
  12 N12            5.1985     3.8941    -0.0257 N.am    
  13 C13            3.7387     3.7458    -0.0134 C.3     
  14 C14            5.9298     5.1635    -0.0250 C.3     
  15 C15            6.7980     5.2527    -1.2816 C.3     
  16 C16            7.5617     6.5784    -1.2809 C.3     
  17 C17            8.4525     6.6532    -0.0392 C.3     
  18 C18            7.5843     6.5640     1.2175 C.3     
  19 C19            6.8205     5.2383     1.2167 C.3     
  20 C20            3.7425    -2.0320    -0.0434 C.3     
  21 C21            3.6392    -2.5344    -1.4604 C.ar    
  22 C22            4.7805    -2.6882    -2.2349 C.ar    
  23 C23            4.6409    -3.1529    -3.5313 C.ar    
  24 C24            3.3711    -3.4478    -4.0103 C.ar    
  25 N25            2.3068    -3.2881    -3.2413 N.ar    
  26 C26            2.4086    -2.8521    -2.0002 C.ar    
  27 O27            6.9468     2.4470    -0.0494 O.2     
  28 O28            3.2208    -3.9036    -5.2794 O.3     
  29 O29            5.9661     5.1828    -2.4414 O.3     
  30 C30            1.8894    -4.1889    -5.7128 C.3     
  31 C31            1.9192    -4.6804    -7.1371 C.ar    
  32 C32            2.0469    -6.0316    -7.3995 C.ar    
  33 C33            2.0743    -6.4824    -8.7060 C.ar    
  34 C34            1.9736    -5.5820    -9.7501 C.ar    
  35 C35            1.8450    -4.2309    -9.4877 C.ar    
  36 C36            1.8132    -3.7806    -8.1811 C.ar    
  37 H37           -0.9672     1.9026     0.0169 H       
  38 H38           -0.9254    -0.5573     0.0082 H       
  39 H39            1.2277    -1.7489    -0.0187 H       
  40 H40            5.7361    -0.2597    -0.0523 H       
  41 H41            3.3074     4.2091    -0.9007 H       
  42 H42            3.3234     4.1995     0.8865 H       
  43 H43            5.2207     5.9913    -0.0138 H       
  44 H44            7.5071     4.4249    -1.2928 H       
  45 H45            8.1803     6.6419    -2.1761 H       
  46 H46            6.8527     7.4062    -1.2697 H       
  47 H47            9.1616     5.8254    -0.0503 H       
  48 H48            8.9966     7.5977    -0.0386 H       
  49 H49            8.2189     6.6173     2.1021 H       
  50 H50            6.8752     7.3918     1.2286 H       
  51 H51            6.2020     5.1748     2.1120 H       
  52 H52            7.5296     4.4105     1.2056 H       
  53 H53            4.7000    -2.3346     0.3806 H       
  54 H54            2.9323    -2.4535     0.5516 H       
  55 H55            5.7553    -2.4504    -1.8355 H       
  56 H56            5.5077    -3.2841    -4.1620 H       
  57 H57            1.5173    -2.7341    -1.4018 H       
  58 H58            6.4506     5.2335    -3.2766 H       
  59 H59            1.4555    -4.9569    -5.0724 H       
  60 H60            1.2860    -3.2831    -5.6536 H       
  61 H61            2.1256    -6.7350    -6.5838 H       
  62 H62            2.1748    -7.5380    -8.9110 H       
  63 H63            1.9958    -5.9342   -10.7708 H       
  64 H64            1.7666    -3.5275   -10.3034 H       
  65 H65            1.7127    -2.7250    -7.9761 H       
@<TRIPOS>BOND
   1    1    2 ar
   2    1    6 ar
   3    1   37 1
   4    2    3 ar
   5    2   38 1
   6    3    4 ar
   7    3   39 1
   8    4    5 ar
   9    4    7 ar
  10    5    6 ar
  11    5   10 ar
  12    7    8 ar
  13    7   20 1
  14    8    9 ar
  15    8   40 1
  16    9   10 ar
  17    9   11 1
  18   10   13 1
  19   11   12 am
  20   11   27 2
  21   12   13 1
  22   12   14 1
  23   13   41 1
  24   13   42 1
  25   14   15 1
  26   14   19 1
  27   14   43 1
  28   15   16 1
  29   15   29 1
  30   15   44 1
  31   16   17 1
  32   16   45 1
  33   16   46 1
  34   17   18 1
  35   17   47 1
  36   17   48 1
  37   18   19 1
  38   18   49 1
  39   18   50 1
  40   19   51 1
  41   19   52 1
  42   20   21 1
  43   20   53 1
  44   20   54 1
  45   21   22 ar
  46   21   26 ar
  47   22   23 ar
  48   22   55 1
  49   23   24 ar
  50   23   56 1
  51   24   25 ar
  52   24   28 1
  53   25   26 ar
  54   26   57 1
  55   28   30 1
  56   29   58 1
  57   30   31 1
  58   30   59 1
  59   30   60 1
  60   31   32 ar
  61   31   36 ar
  62   32   33 ar
  63   32   61 1
  64   33   34 ar
  65   33   62 1
  66   34   35 ar
  67   34   63 1
  68   35   36 ar
  69   35   64 1
  70   36   65 1

#	End of record

