#	Name: ASD01870504
#	Creating user name:	WinNT
#	Creation time:	15. 06. 2019 19:39

#	Modifying user name:	WinNT
#	Modification time:	15. 06. 2019 19:39

#	Program:	/corina/corina34_cracker 3.40 0067  02.08.2006

@<TRIPOS>MOLECULE
ASD01870504
  43   46    0    0    0
SMALL
NO_CHARGES


@<TRIPOS>ATOM
   1 C1            -0.0304     1.3964    -0.2318 C.ar    
   2 C2            -0.0273     0.0161    -0.1044 C.ar    
   3 C3             1.1518    -0.6624     0.1405 C.ar    
   4 C4             2.3477     0.0280     0.2621 C.ar    
   5 C5             2.3599     1.4079     0.1372 C.ar    
   6 C6             1.1574     2.0999    -0.1126 C.ar    
   7 C7             3.4145     2.4414     0.2049 C.2     
   8 N8             2.8483     3.6454     0.0063 N.am    
   9 C9             1.5220     3.5304    -0.1872 C.2     
  10 O10            0.7531     4.4482    -0.3908 O.2     
  11 O11            4.5947     2.2377     0.4065 O.2     
  12 C12            3.5487     4.8614     0.0029 C.ar    
  13 C13            4.0781     5.3542    -1.1821 C.ar    
  14 C14            4.7671     6.5503    -1.1860 C.ar    
  15 C15            4.9316     7.2613    -0.0040 C.ar    
  16 C16            4.4024     6.7690     1.1817 C.ar    
  17 C17            3.7075     5.5749     1.1843 C.ar    
  18 Cl18           3.0390     4.9627     2.6648 Cl      
  19 N19            5.6312     8.4736    -0.0081 N.am    
  20 C20            6.4042     8.8091     1.0437 C.2     
  21 C21            7.2194    10.0331     0.9968 C.2     
  22 O22            6.4280     8.1000     2.0318 O.2     
  23 C23            8.0589    10.5107     1.9884 C.2     
  24 C24            8.6038    11.6900     1.4753 C.2     
  25 N25            8.1106    11.8720     0.2769 N.2     
  26 N26            7.3041    10.9227    -0.0364 N.pl3   
  27 C27            8.3271     9.8907     3.3355 C.3     
  28 C28           -1.3186    -0.7501    -0.2333 C.3     
  29 H29           -0.9540     1.9209    -0.4275 H       
  30 H30            1.1412    -1.7379     0.2381 H       
  31 H31            3.2659    -0.5073     0.4538 H       
  32 H32            3.9510     4.8014    -2.1012 H       
  33 H33            5.1788     6.9333    -2.1081 H       
  34 H34            4.5302     7.3216     2.1008 H       
  35 H35            5.5596     9.0724    -0.7679 H       
  36 H36            9.3072    12.3369     1.9785 H       
  37 H37            6.8265    10.8497    -0.8775 H       
  38 H38            9.1713     9.2054     3.2584 H       
  39 H39            8.5600    10.6744     4.0563 H       
  40 H40            7.4441     9.3437     3.6660 H       
  41 H41           -1.4738    -1.0279    -1.2758 H       
  42 H42           -1.2695    -1.6505     0.3791 H       
  43 H43           -2.1465    -0.1262     0.1036 H       
@<TRIPOS>BOND
   1    1    2 ar
   2    1    6 ar
   3    1   29 1
   4    2    3 ar
   5    2   28 1
   6    3    4 ar
   7    3   30 1
   8    4    5 ar
   9    4   31 1
  10    5    7 1
  11    5    6 ar
  12    6    9 1
  13    7    8 am
  14    7   11 2
  15    8    9 am
  16    8   12 1
  17    9   10 2
  18   12   13 ar
  19   12   17 ar
  20   13   14 ar
  21   13   32 1
  22   14   15 ar
  23   14   33 1
  24   15   16 ar
  25   15   19 1
  26   16   17 ar
  27   16   34 1
  28   17   18 1
  29   19   20 am
  30   19   35 1
  31   20   21 1
  32   20   22 2
  33   21   23 2
  34   21   26 1
  35   23   24 1
  36   23   27 1
  37   24   25 2
  38   24   36 1
  39   25   26 1
  40   26   37 1
  41   27   38 1
  42   27   39 1
  43   27   40 1
  44   28   41 1
  45   28   42 1
  46   28   43 1

#	End of record

