#	Name: ASD01911418
#	Creating user name:	WinNT
#	Creation time:	15. 06. 2019 19:57

#	Modifying user name:	WinNT
#	Modification time:	15. 06. 2019 19:57

#	Program:	/corina/corina34_cracker 3.40 0067  02.08.2006

@<TRIPOS>MOLECULE
ASD01911418
  29   31    0    0    0
SMALL
NO_CHARGES


@<TRIPOS>ATOM
   1 C1            -0.0167     1.3788     0.0096 C.ar    
   2 C2             0.0021    -0.0041     0.0020 C.ar    
   3 C3             1.2059    -0.6875    -0.0131 C.ar    
   4 C4             2.3975     0.0059    -0.0208 C.ar    
   5 C5             2.3894     1.4037    -0.0132 C.ar    
   6 C6             1.1689     2.0888     0.0021 C.ar    
   7 C7             3.6231     2.1308    -0.0206 C.1     
   8 C8             4.6344     2.7269    -0.0266 C.1     
   9 C9             5.8681     3.4540    -0.0340 C.ar    
  10 C10            5.8575     4.8544    -0.0264 C.ar    
  11 C11            7.0337     5.5408    -0.0330 C.ar    
  12 C12            8.2550     4.8573    -0.0473 C.ar    
  13 C13            8.2645     3.4582    -0.0553 C.ar    
  14 C14            7.0874     2.7667    -0.0430 C.ar    
  15 C15            7.3691     7.0117    -0.0275 C.3     
  16 N16            8.8338     7.0980    -0.0396 N.am    
  17 C17            9.3408     5.8535    -0.0510 C.2     
  18 O18           10.5272     5.5873    -0.0623 O.2     
  19 F19            1.1500     3.4397     0.0091 F       
  20 H20           -0.9598     1.9049     0.0169 H       
  21 H21           -0.9275    -0.5538     0.0083 H       
  22 H22            1.2116    -1.7675    -0.0186 H       
  23 H23            3.3353    -0.5298    -0.0322 H       
  24 H24            4.9190     5.3887    -0.0156 H       
  25 H25            9.2036     2.9250    -0.0668 H       
  26 H26            7.0971     1.6868    -0.0488 H       
  27 H27            6.9581     7.4930    -0.9149 H       
  28 H28            6.9734     7.4828     0.8722 H       
  29 H29            9.3510     7.9186    -0.0400 H       
@<TRIPOS>BOND
   1    1    2 ar
   2    1    6 ar
   3    1   20 1
   4    2    3 ar
   5    2   21 1
   6    3    4 ar
   7    3   22 1
   8    4    5 ar
   9    4   23 1
  10    5    6 ar
  11    5    7 1
  12    6   19 1
  13    7    8 3
  14    8    9 1
  15    9   10 ar
  16    9   14 ar
  17   10   11 ar
  18   10   24 1
  19   11   12 ar
  20   11   15 1
  21   12   13 ar
  22   12   17 1
  23   13   14 ar
  24   13   25 1
  25   14   26 1
  26   15   16 1
  27   15   27 1
  28   15   28 1
  29   16   17 am
  30   16   29 1
  31   17   18 2

#	End of record

