#	Name: ASD00170969
#	Creating user name:	WinNT
#	Creation time:	15. 06. 2019 18:32

#	Modifying user name:	WinNT
#	Modification time:	15. 06. 2019 18:32

#	Program:	/corina/corina34_cracker 3.40 0067  02.08.2006

@<TRIPOS>MOLECULE
ASD00170969
  52   53    0    0    0
SMALL
NO_CHARGES


@<TRIPOS>ATOM
   1 C1            -0.9078     1.7086    -0.0715 C.2     
   2 O2            -0.4996     1.7110     1.0759 O.2     
   3 C3            -0.0342     1.2338    -1.1661 C.ar    
   4 C4             1.2922     0.8866    -0.9036 C.ar    
   5 C5             2.1019     0.4440    -1.9284 C.ar    
   6 C6             1.6015     0.3436    -3.2160 C.ar    
   7 C7             0.2864     0.6871    -3.4826 C.ar    
   8 C8            -0.5344     1.1255    -2.4650 C.ar    
   9 Cl9            2.6269    -0.2144    -4.5010 Cl      
  10 C10           -2.5981     3.4923    -0.5429 C.2     
  11 C11           -2.2641     2.1698    -0.3660 C.2     
  12 C12           -3.4012     1.2835    -0.5030 C.2     
  13 C13           -4.5307     1.9220    -0.7703 C.2     
  14 S14           -4.2631     3.6531    -0.8695 S.3     
  15 Br15          -6.2067     1.0805    -1.0124 Br      
  16 C16           -3.3089    -0.2136    -0.3569 C.3     
  17 N17           -3.2683    -0.5648     1.0689 N.3     
  18 N18           -1.7086     4.5446    -0.4613 N.pl3   
  19 C19           -4.5815    -0.3678     1.6972 C.3     
  20 C20           -4.7127     1.0846     2.1598 C.3     
  21 C21           -6.1111     1.3114     2.7377 C.3     
  22 C22           -2.7955    -1.9427     1.2584 C.3     
  23 C23           -1.2788    -1.9928     1.0631 C.3     
  24 C24           -0.5946    -1.1977     2.1769 C.3     
  25 C25           -3.6634     1.3742     3.2350 C.3     
  26 C26           -0.8063    -3.4472     1.1105 C.3     
  27 H27            1.6836     0.9648     0.0999 H       
  28 H28            3.1284     0.1754    -1.7266 H       
  29 H29           -0.0980     0.6074    -4.4888 H       
  30 H30           -1.5609     1.3888    -2.6732 H       
  31 H31           -4.1789    -0.6783    -0.8210 H       
  32 H32           -2.4023    -0.5711    -0.8451 H       
  33 H33           -0.7897     4.3835    -0.1955 H       
  34 H34           -2.0023     5.4452    -0.6699 H       
  35 H35           -5.3669    -0.5916     0.9753 H       
  36 H36           -4.6769    -1.0326     2.5557 H       
  37 H37           -4.5575     1.7515     1.3117 H       
  38 H38           -6.2663     0.6446     3.5858 H       
  39 H39           -6.2046     2.3462     3.0673 H       
  40 H40           -6.8587     1.1051     1.9717 H       
  41 H41           -3.0433    -2.2765     2.2660 H       
  42 H42           -3.2773    -2.5955     0.5306 H       
  43 H43           -1.0224    -1.5588     0.0967 H       
  44 H44           -0.8749    -0.1473     2.0983 H       
  45 H45           -0.9084    -1.5859     3.1459 H       
  46 H46            0.4868    -1.2935     2.0801 H       
  47 H47           -3.8700     0.7679     4.1169 H       
  48 H48           -2.6728     1.1310     2.8508 H       
  49 H49           -3.6999     2.4301     3.5033 H       
  50 H50           -1.2937    -4.0137     0.3170 H       
  51 H51            0.2742    -3.4829     0.9714 H       
  52 H52           -1.0627    -3.8812     2.0769 H       
@<TRIPOS>BOND
   1    1    2 2
   2    1    3 1
   3    1   11 1
   4    3    4 ar
   5    3    8 ar
   6    4    5 ar
   7    4   27 1
   8    5    6 ar
   9    5   28 1
  10    6    7 ar
  11    6    9 1
  12    7    8 ar
  13    7   29 1
  14    8   30 1
  15   10   11 2
  16   10   14 1
  17   10   18 1
  18   11   12 1
  19   12   13 2
  20   12   16 1
  21   13   14 1
  22   13   15 1
  23   16   17 1
  24   16   31 1
  25   16   32 1
  26   17   19 1
  27   17   22 1
  28   18   33 1
  29   18   34 1
  30   19   20 1
  31   19   35 1
  32   19   36 1
  33   20   21 1
  34   20   25 1
  35   20   37 1
  36   21   38 1
  37   21   39 1
  38   21   40 1
  39   22   23 1
  40   22   41 1
  41   22   42 1
  42   23   24 1
  43   23   26 1
  44   23   43 1
  45   24   44 1
  46   24   45 1
  47   24   46 1
  48   25   47 1
  49   25   48 1
  50   25   49 1
  51   26   50 1
  52   26   51 1
  53   26   52 1

#	End of record

