#	Name: ASD07300240
#	Creating user name:	WinNT
#	Creation time:	15. 06. 2019 21:09

#	Modifying user name:	WinNT
#	Modification time:	15. 06. 2019 21:09

#	Program:	/corina/corina34_cracker 3.40 0067  02.08.2006

@<TRIPOS>MOLECULE
ASD07300240
  67   71    0    0    0
SMALL
NO_CHARGES


@<TRIPOS>ATOM
   1 C1            -1.2432     0.8507    -0.1133 C.ar    
   2 C2            -0.8069    -0.3124     0.5285 C.ar    
   3 C3            -0.4967    -1.4316    -0.2295 C.ar    
   4 C4            -0.6336    -1.3493    -1.6076 C.ar    
   5 C5            -1.0702    -0.1672    -2.1754 C.ar    
   6 N6            -1.3585     0.8826    -1.4307 N.ar    
   7 C7            -1.1866     1.2336     2.0739 C.2     
   8 N8            -1.4701     1.7933     0.8831 N.am    
   9 N9            -0.7885    -0.0403     1.8932 N.am    
  10 O10           -1.2799     1.7924     3.1507 O.2     
  11 C11           -1.9184     3.1071     0.6813 C.ar    
  12 C12           -2.1056     3.9514     1.7674 C.ar    
  13 C13           -2.5464     5.2447     1.5682 C.ar    
  14 C14           -2.8023     5.7004     0.2830 C.ar    
  15 C15           -2.6153     4.8570    -0.8027 C.ar    
  16 C16           -2.1695     3.5652    -0.6050 C.ar    
  17 O17           -3.2368     6.9738     0.0874 O.3     
  18 C18           -2.3328     7.9754     0.1856 C.2     
  19 N19           -1.0473     7.8119     0.3616 N.2     
  20 C20           -0.4361     9.0244     0.4153 C.ar    
  21 C21           -1.4369     9.9979     0.2586 C.ar    
  22 N22           -2.6264     9.3055     0.1099 N.pl3   
  23 C23            0.8916     9.4241     0.5834 C.ar    
  24 C24            1.2061    10.7647     0.5940 C.ar    
  25 C25            0.2143    11.7216     0.4394 C.ar    
  26 C26           -1.1020    11.3433     0.2722 C.ar    
  27 C27           -3.9541     9.8921    -0.0884 C.3     
  28 O28           -4.5692    10.1188     1.1814 O.3     
  29 C29           -5.8756    10.6922     1.1004 C.3     
  30 C30           -6.4343    10.8896     2.5110 C.3     
  31 Si31          -8.1375    11.6372     2.4053 Si      
  32 C32           -9.2576    10.4975     1.4476 C.3     
  33 C33           -8.8178    11.8776     4.1229 C.3     
  34 C34           -8.0402    13.2841     1.5398 C.3     
  35 C35           -0.3953    -0.9753     2.9503 C.3     
  36 C36            1.1073    -0.8491     3.2097 C.3     
  37 H37           -0.1572    -2.3428     0.2405 H       
  38 H38           -0.4010    -2.2003    -2.2306 H       
  39 H39           -1.1771    -0.1019    -3.2481 H       
  40 H40           -1.9068     3.5966     2.7679 H       
  41 H41           -2.6924     5.9014     2.4130 H       
  42 H42           -2.8146     5.2122    -1.8030 H       
  43 H43           -2.0201     2.9101    -1.4504 H       
  44 H44            1.6689     8.6843     0.7051 H       
  45 H45            2.2328    11.0733     0.7240 H       
  46 H46            0.4739    12.7699     0.4502 H       
  47 H47           -1.8697    12.0934     0.1518 H       
  48 H48           -3.8574    10.8390    -0.6194 H       
  49 H49           -4.5696     9.2087    -0.6734 H       
  50 H50           -5.8187    11.6557     0.5940 H       
  51 H51           -6.5309    10.0254     0.5400 H       
  52 H52           -6.4912     9.9261     3.0174 H       
  53 H53           -5.7790    11.5564     3.0713 H       
  54 H54           -9.3145     9.5340     1.9540 H       
  55 H55          -10.2541    10.9349     1.3857 H       
  56 H56           -8.8595    10.3569     0.4426 H       
  57 H57           -8.1624    12.5444     4.6832 H       
  58 H58           -9.8143    12.3150     4.0611 H       
  59 H59           -8.8747    10.9140     4.6293 H       
  60 H60           -7.6421    13.1434     0.5348 H       
  61 H61           -9.0367    13.7214     1.4779 H       
  62 H62           -7.3848    13.9509     2.1001 H       
  63 H63           -0.9425    -0.7422     3.8636 H       
  64 H64           -0.6259    -1.9940     2.6385 H       
  65 H65            1.3999    -1.5448     3.9962 H       
  66 H66            1.6546    -1.0822     2.2963 H       
  67 H67            1.3379     0.1696     3.5214 H       
@<TRIPOS>BOND
   1    1    2 ar
   2    1    6 ar
   3    1    8 1
   4    2    3 ar
   5    2    9 1
   6    3    4 ar
   7    3   37 1
   8    4    5 ar
   9    4   38 1
  10    5    6 ar
  11    5   39 1
  12    7    8 am
  13    7    9 am
  14    7   10 2
  15    8   11 1
  16    9   35 1
  17   11   12 ar
  18   11   16 ar
  19   12   13 ar
  20   12   40 1
  21   13   14 ar
  22   13   41 1
  23   14   15 ar
  24   14   17 1
  25   15   16 ar
  26   15   42 1
  27   16   43 1
  28   17   18 1
  29   18   19 2
  30   18   22 1
  31   19   20 1
  32   20   21 ar
  33   20   23 ar
  34   21   22 1
  35   21   26 ar
  36   22   27 1
  37   23   24 ar
  38   23   44 1
  39   24   25 ar
  40   24   45 1
  41   25   26 ar
  42   25   46 1
  43   26   47 1
  44   27   28 1
  45   27   48 1
  46   27   49 1
  47   28   29 1
  48   29   30 1
  49   29   50 1
  50   29   51 1
  51   30   31 1
  52   30   52 1
  53   30   53 1
  54   31   32 1
  55   31   33 1
  56   31   34 1
  57   32   54 1
  58   32   55 1
  59   32   56 1
  60   33   57 1
  61   33   58 1
  62   33   59 1
  63   34   60 1
  64   34   61 1
  65   34   62 1
  66   35   36 1
  67   35   63 1
  68   35   64 1
  69   36   65 1
  70   36   66 1
  71   36   67 1

#	End of record

