#	Name: ASD03331748
#	Creating user name:	WinNT
#	Creation time:	15. 06. 2019 20:39

#	Modifying user name:	WinNT
#	Modification time:	15. 06. 2019 20:39

#	Program:	/corina/corina34_cracker 3.40 0067  02.08.2006

@<TRIPOS>MOLECULE
ASD03331748
  63   66    0    0    0
SMALL
NO_CHARGES


@<TRIPOS>ATOM
   1 C1            -0.0167     1.3768     0.0096 C.ar    
   2 C2             0.0021    -0.0041     0.0020 C.ar    
   3 C3             1.2080    -0.6807    -0.0131 C.ar    
   4 C4             2.3988     0.0223    -0.0203 C.ar    
   5 C5             2.3873     1.4033    -0.0123 C.ar    
   6 C6             1.1777     2.0861     0.0020 C.ar    
   7 N7             1.1624     3.4827     0.0097 N.3     
   8 C8             2.5274     4.0240    -0.0005 C.3     
   9 C9             2.4726     5.5472    -0.1385 C.3     
  10 C10            1.6800     6.1328     1.0334 C.3     
  11 C11            0.2783     5.5166     1.0499 C.3     
  12 C12            0.3968     3.9944     1.1535 C.3     
  13 C13            1.2245    -2.1876    -0.0214 C.3     
  14 C14            1.2163    -2.6898    -1.4666 C.3     
  15 N15            1.2323    -4.1547    -1.4746 N.am    
  16 C16            1.2286    -4.8223    -2.6454 C.2     
  17 C17            1.2447    -6.2927    -2.6535 C.2     
  18 O18            1.2119    -4.2084    -3.6955 O.2     
  19 C19            1.2427    -7.0742    -3.7649 C.2     
  20 C20            1.2616    -8.4256    -3.3423 C.ar    
  21 C21            1.2749    -8.4159    -1.9338 C.ar    
  22 N22            1.2702    -7.0991    -1.5324 N.pl3   
  23 C23            1.2231    -6.5896    -5.1918 C.3     
  24 C24            2.6588    -6.4097    -5.6890 C.3     
  25 C25            2.6389    -5.9177    -7.1377 C.3     
  26 C26            1.2689    -9.6463    -4.0290 C.ar    
  27 C27            1.2891   -10.8299    -3.3182 C.ar    
  28 C28            1.3017   -10.8134    -1.9232 C.ar    
  29 C29            1.2972    -9.6209    -1.2371 C.ar    
  30 N30            1.2964   -12.0523    -4.0005 N.pl3   
  31 N31            1.3147   -13.1255    -3.3599 N.1     
  32 N32            1.3298   -14.0129    -2.8303 N.1     
  33 H33           -0.9588     1.9047     0.0170 H       
  34 H34           -0.9261    -0.5561     0.0083 H       
  35 H35            3.3389    -0.5092    -0.0317 H       
  36 H36            3.3177     1.9517    -0.0171 H       
  37 H37            3.0291     3.7616     0.9310 H       
  38 H38            3.0789     3.6028    -0.8410 H       
  39 H39            3.4854     5.9500    -0.1303 H       
  40 H40            1.9833     5.8102    -1.0764 H       
  41 H41            2.1899     5.9031     1.9690 H       
  42 H42            1.6014     7.2136     0.9161 H       
  43 H43           -0.2766     5.8977     1.9072 H       
  44 H44           -0.2455     5.7792     0.1308 H       
  45 H45           -0.5992     3.5516     1.1511 H       
  46 H46            0.9084     3.7321     2.0796 H       
  47 H47            2.1233    -2.5439     0.4820 H       
  48 H48            0.3435    -2.5634     0.4989 H       
  49 H49            0.3175    -2.3335    -1.9700 H       
  50 H50            2.0973    -2.3139    -1.9868 H       
  51 H51            1.2457    -4.6442    -0.6373 H       
  52 H52            1.2769    -6.7888    -0.6135 H       
  53 H53            0.7111    -7.3212    -5.8169 H       
  54 H54            0.6981    -5.6358    -5.2444 H       
  55 H55            3.1708    -5.6781    -5.0639 H       
  56 H56            3.1838    -7.3634    -5.6364 H       
  57 H57            2.1269    -6.6492    -7.7628 H       
  58 H58            2.1139    -4.9639    -7.1903 H       
  59 H59            3.6617    -5.7895    -7.4919 H       
  60 H60            1.2585    -9.6617    -5.1088 H       
  61 H61            1.3171   -11.7450    -1.3771 H       
  62 H62            1.3075    -9.6196    -0.1572 H       
  63 H63            1.2874   -12.0664    -4.9704 H       
@<TRIPOS>BOND
   1    1    2 ar
   2    1    6 ar
   3    1   33 1
   4    2    3 ar
   5    2   34 1
   6    3    4 ar
   7    3   13 1
   8    4    5 ar
   9    4   35 1
  10    5    6 ar
  11    5   36 1
  12    6    7 1
  13    7    8 1
  14    7   12 1
  15    8    9 1
  16    8   37 1
  17    8   38 1
  18    9   10 1
  19    9   39 1
  20    9   40 1
  21   10   11 1
  22   10   41 1
  23   10   42 1
  24   11   12 1
  25   11   43 1
  26   11   44 1
  27   12   45 1
  28   12   46 1
  29   13   14 1
  30   13   47 1
  31   13   48 1
  32   14   15 1
  33   14   49 1
  34   14   50 1
  35   15   16 am
  36   15   51 1
  37   16   17 1
  38   16   18 2
  39   17   19 2
  40   17   22 1
  41   19   20 1
  42   19   23 1
  43   20   21 ar
  44   20   26 ar
  45   21   22 1
  46   21   29 ar
  47   22   52 1
  48   23   24 1
  49   23   53 1
  50   23   54 1
  51   24   25 1
  52   24   55 1
  53   24   56 1
  54   25   57 1
  55   25   58 1
  56   25   59 1
  57   26   27 ar
  58   26   60 1
  59   27   28 ar
  60   27   30 1
  61   28   29 ar
  62   28   61 1
  63   29   62 1
  64   30   31 1
  65   30   63 1
  66   31   32 3

#	End of record

