#	Name: ASD01150720
#	Creating user name:	WinNT
#	Creation time:	15. 06. 2019 19:04

#	Modifying user name:	WinNT
#	Modification time:	15. 06. 2019 19:04

#	Program:	/corina/corina34_cracker 3.40 0067  02.08.2006

@<TRIPOS>MOLECULE
ASD01150720
  30   31    0    0    0
SMALL
NO_CHARGES


@<TRIPOS>ATOM
   1 C1            -0.0421     1.1921     0.0129 C.2     
   2 O2             0.6611     1.2331    -0.9785 O.2     
   3 C3             0.3954     0.4262     1.1974 C.ar    
   4 C4             1.5596    -0.3445     1.1434 C.ar    
   5 C5             1.9630    -1.0572     2.2517 C.ar    
   6 C6             1.2159    -1.0105     3.4192 C.ar    
   7 C7             0.0596    -0.2472     3.4785 C.ar    
   8 C8            -0.3503     0.4741     2.3781 C.ar    
   9 F9             1.6159    -1.7115     4.5026 F       
  10 C10           -1.3277     1.9115     0.0345 C.ar    
  11 C11           -2.5348     1.2048    -0.0924 C.ar    
  12 C12           -3.7413     1.8922    -0.0704 C.ar    
  13 C13           -3.7542     3.2643     0.0755 C.ar    
  14 C14           -2.5627     3.9694     0.2015 C.ar    
  15 C15           -1.3534     3.3011     0.1871 C.ar    
  16 O16           -2.5877     5.3216     0.3448 O.3     
  17 C17           -3.8715     5.9491     0.3571 C.3     
  18 F18           -4.6271     5.4443     1.4208 F       
  19 F19           -3.7139     7.3306     0.5112 F       
  20 F20           -4.5304     5.6866    -0.8488 F       
  21 N21           -2.5219    -0.1777    -0.2398 N.pl3   
  22 H22            2.1419    -0.3819     0.2346 H       
  23 H23            2.8625    -1.6536     2.2110 H       
  24 H24           -0.5186    -0.2147     4.3902 H       
  25 H25           -1.2483     1.0721     2.4270 H       
  26 H26           -4.6713     1.3518    -0.1680 H       
  27 H27           -4.6954     3.7936     0.0916 H       
  28 H28           -0.4298     3.8514     0.2897 H       
  29 H29           -1.6784    -0.6480    -0.3301 H       
  30 H30           -3.3565    -0.6719    -0.2524 H       
@<TRIPOS>BOND
   1    1    2 2
   2    1    3 1
   3    1   10 1
   4    3    4 ar
   5    3    8 ar
   6    4    5 ar
   7    4   22 1
   8    5    6 ar
   9    5   23 1
  10    6    7 ar
  11    6    9 1
  12    7    8 ar
  13    7   24 1
  14    8   25 1
  15   10   11 ar
  16   10   15 ar
  17   11   12 ar
  18   11   21 1
  19   12   13 ar
  20   12   26 1
  21   13   14 ar
  22   13   27 1
  23   14   15 ar
  24   14   16 1
  25   15   28 1
  26   16   17 1
  27   17   18 1
  28   17   19 1
  29   17   20 1
  30   21   29 1
  31   21   30 1

#	End of record

