#	Name: ASD01813472
#	Creating user name:	WinNT
#	Creation time:	15. 06. 2019 19:30

#	Modifying user name:	WinNT
#	Modification time:	15. 06. 2019 19:30

#	Program:	/corina/corina34_cracker 3.40 0067  02.08.2006

@<TRIPOS>MOLECULE
ASD01813472
  51   54    0    0    0
SMALL
NO_CHARGES


@<TRIPOS>ATOM
   1 C1             0.0515     1.4000    -0.0443 C.ar    
   2 C2             0.0442     0.0127    -0.0555 C.ar    
   3 C3             1.2265    -0.6980    -0.0456 C.ar    
   4 C4             2.4453    -0.0205    -0.0241 C.ar    
   5 C5             2.4479     1.3842    -0.0129 C.ar    
   6 C6             1.2441     2.0888    -0.0231 C.ar    
   7 N7             3.6344    -0.7183    -0.0130 N.pl3   
   8 C8             4.8294    -0.1151     0.0090 C.2     
   9 C9             4.9594     1.2592     0.0222 C.2     
  10 C10            3.7436     2.0885     0.0098 C.2     
  11 O11            3.8048     3.3055     0.0204 O.2     
  12 C12            6.2897     1.8837     0.0473 C.2     
  13 O13            6.4036     3.2269     0.0601 O.3     
  14 O14            7.2872     1.1890     0.0566 O.2     
  15 C15            3.5883    -2.1826    -0.0254 C.3     
  16 C16            3.4455    -2.6687    -1.4446 C.ar    
  17 N17            2.2454    -2.7484    -1.9858 N.ar    
  18 C18            2.0666    -3.1665    -3.2223 C.ar    
  19 C19            3.1542    -3.5427    -4.0078 C.ar    
  20 C20            4.4393    -3.4694    -3.4628 C.ar    
  21 C21            4.5756    -3.0189    -2.1612 C.ar    
  22 C22            2.9515    -4.0137    -5.3998 C.ar    
  23 F23            1.2038    -2.0487    -0.0563 F       
  24 C24            1.6652    -4.0832    -5.9329 C.ar    
  25 C25            1.4791    -4.5212    -7.2267 C.ar    
  26 C26            2.5729    -4.8936    -7.9997 C.ar    
  27 C27            3.8564    -4.8251    -7.4700 C.ar    
  28 C28            4.0474    -4.3821    -6.1786 C.ar    
  29 N29            2.3822    -5.3372    -9.3091 N.pl3   
  30 C30            1.0254    -5.5340    -9.8255 C.3     
  31 C31            3.5387    -5.6061   -10.1672 C.3     
  32 H32           -0.8823     1.9425    -0.0568 H       
  33 H33           -0.8972    -0.5165    -0.0718 H       
  34 H34            1.2472     3.1688    -0.0147 H       
  35 H35            5.7214    -0.7239     0.0170 H       
  36 H36            7.2991     3.5914     0.0765 H       
  37 H37            4.5087    -2.5787     0.4035 H       
  38 H38            2.7368    -2.5242     0.5631 H       
  39 H39            1.0681    -3.2185    -3.6306 H       
  40 H40            5.3042    -3.7536    -4.0438 H       
  41 H41            5.5530    -2.9492    -1.7072 H       
  42 H42            0.8152    -3.7943    -5.3326 H       
  43 H43            0.4827    -4.5755    -7.6399 H       
  44 H44            4.7048    -5.1149    -8.0722 H       
  45 H45            5.0447    -4.3291    -5.7675 H       
  46 H46            0.6723    -4.6089   -10.2812 H       
  47 H47            1.0326    -6.3275   -10.5729 H       
  48 H48            0.3618    -5.8122    -9.0068 H       
  49 H49            4.4518    -5.3144    -9.6483 H       
  50 H50            3.5779    -6.6700   -10.4013 H       
  51 H51            3.4469    -5.0341   -11.0905 H       
@<TRIPOS>BOND
   1    1    2 ar
   2    1    6 ar
   3    1   32 1
   4    2    3 ar
   5    2   33 1
   6    3    4 ar
   7    3   23 1
   8    4    5 ar
   9    4    7 1
  10    5    6 ar
  11    5   10 1
  12    6   34 1
  13    7    8 1
  14    7   15 1
  15    8    9 2
  16    8   35 1
  17    9   10 1
  18    9   12 1
  19   10   11 2
  20   12   13 1
  21   12   14 2
  22   13   36 1
  23   15   16 1
  24   15   37 1
  25   15   38 1
  26   16   17 ar
  27   16   21 ar
  28   17   18 ar
  29   18   19 ar
  30   18   39 1
  31   19   20 ar
  32   19   22 1
  33   20   21 ar
  34   20   40 1
  35   21   41 1
  36   22   24 ar
  37   22   28 ar
  38   24   25 ar
  39   24   42 1
  40   25   26 ar
  41   25   43 1
  42   26   27 ar
  43   26   29 1
  44   27   28 ar
  45   27   44 1
  46   28   45 1
  47   29   30 1
  48   29   31 1
  49   30   46 1
  50   30   47 1
  51   30   48 1
  52   31   49 1
  53   31   50 1
  54   31   51 1

#	End of record

