#	Name: ASD03200017
#	Creating user name:	WinNT
#	Creation time:	15. 06. 2019 20:34

#	Modifying user name:	WinNT
#	Modification time:	15. 06. 2019 20:34

#	Program:	/corina/corina34_cracker 3.40 0067  02.08.2006

@<TRIPOS>MOLECULE
ASD03200017
  52   54    0    0    0
SMALL
NO_CHARGES


@<TRIPOS>ATOM
   1 C1             0.9670    -1.0553    -0.1622 C.3     
   2 N2            -0.0237     0.0165     0.0003 N.3     
   3 C3             0.3130     0.8829     1.1371 C.3     
   4 C4             1.6660     1.5526     0.8867 C.3     
   5 C5             2.7384     0.4744     0.7075 C.3     
   6 C6             2.3396    -0.4434    -0.4514 C.3     
   7 C7            -1.3087    -0.5072     0.1346 C.ar    
   8 C8            -2.0140    -0.3735     1.3279 C.ar    
   9 C9            -3.2842    -0.9054     1.4212 C.ar    
  10 N10           -3.8335    -1.5349     0.3998 N.ar    
  11 C11           -3.2023    -1.6852    -0.7496 C.ar    
  12 C12           -1.9267    -1.1763    -0.9286 C.ar    
  13 N13           -1.2607    -1.3385    -2.1510 N.am    
  14 C14           -1.4435    -2.4610    -2.8742 C.2     
  15 C15           -0.6769    -2.6727    -4.1039 C.2     
  16 O16           -2.2461    -3.2990    -2.5053 O.2     
  17 C17           -0.8893    -3.7444    -4.9399 C.2     
  18 S18            0.2382    -3.6118    -6.2875 S.3     
  19 C19            0.8925    -2.1277    -5.6045 C.2     
  20 N20            0.2840    -1.8380    -4.5113 N.2     
  21 C21            2.0018    -1.3119    -6.2168 C.3     
  22 N22            2.0122     2.4028     2.0335 N.3     
  23 N23           -1.8211    -4.7475    -4.7551 N.pl3   
  24 C24            3.1239    -1.1274    -5.1933 C.3     
  25 C25            2.5487    -2.0374    -7.4479 C.3     
  26 C26            1.4591     0.0573    -6.6310 C.3     
  27 H27            1.0178    -1.6447     0.7533 H       
  28 H28            0.6737    -1.6981    -0.9921 H       
  29 H29           -0.4553     1.6477     1.2509 H       
  30 H30            0.3668     0.2843     2.0465 H       
  31 H31            1.6089     2.1623    -0.0150 H       
  32 H32            3.6957     0.9460     0.4859 H       
  33 H33            2.8229    -0.1109     1.6232 H       
  34 H34            3.0776    -1.2386    -0.5565 H       
  35 H35            2.2931     0.1350    -1.3742 H       
  36 H36           -1.5727     0.1394     2.1697 H       
  37 H37           -3.8365    -0.8051     2.3438 H       
  38 H38           -3.6875    -2.2075    -1.5609 H       
  39 H39           -0.6682    -0.6429    -2.4765 H       
  40 H40            2.9372     2.7920     1.9289 H       
  41 H41            1.3261     3.1311     2.1638 H       
  42 H42           -2.4002    -4.7342    -3.9771 H       
  43 H43           -1.8962    -5.4651    -5.4034 H       
  44 H44            3.5697    -2.0953    -4.9643 H       
  45 H45            3.8855    -0.4648    -5.6045 H       
  46 H46            2.7160    -0.6904    -4.2818 H       
  47 H47            1.7493    -2.1688    -8.1771 H       
  48 H48            3.3510    -1.4473    -7.8908 H       
  49 H49            2.9354    -3.0128    -7.1528 H       
  50 H50            1.0695     0.5742    -5.7540 H       
  51 H51            2.2614     0.6474    -7.0739 H       
  52 H52            0.6597    -0.0741    -7.3602 H       
@<TRIPOS>BOND
   1    1    2 1
   2    1    6 1
   3    1   27 1
   4    1   28 1
   5    2    3 1
   6    2    7 1
   7    3    4 1
   8    3   29 1
   9    3   30 1
  10    4    5 1
  11    4   22 1
  12    4   31 1
  13    5    6 1
  14    5   32 1
  15    5   33 1
  16    6   34 1
  17    6   35 1
  18    7    8 ar
  19    7   12 ar
  20    8    9 ar
  21    8   36 1
  22    9   10 ar
  23    9   37 1
  24   10   11 ar
  25   11   12 ar
  26   11   38 1
  27   12   13 1
  28   13   14 am
  29   13   39 1
  30   14   15 1
  31   14   16 2
  32   15   17 2
  33   15   20 1
  34   17   18 1
  35   17   23 1
  36   18   19 1
  37   19   20 2
  38   19   21 1
  39   21   24 1
  40   21   25 1
  41   21   26 1
  42   22   40 1
  43   22   41 1
  44   23   42 1
  45   23   43 1
  46   24   44 1
  47   24   45 1
  48   24   46 1
  49   25   47 1
  50   25   48 1
  51   25   49 1
  52   26   50 1
  53   26   51 1
  54   26   52 1

#	End of record

