#	Name: ASD02030795
#	Creating user name:	WinNT
#	Creation time:	15. 06. 2019 20:16

#	Modifying user name:	WinNT
#	Modification time:	15. 06. 2019 20:16

#	Program:	/corina/corina34_cracker 3.40 0067  02.08.2006

@<TRIPOS>MOLECULE
ASD02030795
  82   86    0    0    0
SMALL
NO_CHARGES


@<TRIPOS>ATOM
   1 H1            -0.5401     0.0713    -0.7260 H       
   2 C2            -0.4743     1.1588    -0.6932 C.3     
   3 C3            -0.8026     1.7587    -2.0832 C.3     
   4 C4             0.4963     2.4510    -2.5793 C.3     
   5 C5             1.5946     1.7142    -1.8051 C.3     
   6 H6             1.7632     0.7261    -2.2333 H       
   7 C7             2.9037     2.4631    -1.6380 C.3     
   8 H8             2.7277     3.4187    -1.1443 H       
   9 C9             3.5688     2.6735    -3.0011 C.3     
  10 C10            4.8907     3.4105    -2.7952 C.3     
  11 C11            5.8294     2.5828    -1.9109 C.3     
  12 H12            6.0658     1.6439    -2.4117 H       
  13 C13            7.1144     3.3904    -1.7129 C.3     
  14 C14            7.7742     3.0453    -0.3837 C.3     
  15 O15            7.2247     3.8688     0.6468 O.3     
  16 C16            7.5262     1.5776    -0.0460 C.3     
  17 C17            6.0520     1.3596     0.2703 C.3     
  18 C18            5.1699     2.2896    -0.5669 C.3     
  19 C19            4.9487     3.6008     0.1898 C.3     
  20 C20            3.8247     1.5875    -0.7781 C.3     
  21 H21            4.0001     0.6470    -1.3004 H       
  22 C22            3.1944     1.2635     0.5723 C.3     
  23 C23            1.8060     0.6237     0.4045 C.3     
  24 C24            0.9569     1.5929    -0.3946 C.3     
  25 C25            0.9506     2.9613     0.2898 C.3     
  26 C26            9.2804     3.2943    -0.4843 C.3     
  27 F27            9.5115     4.6409    -0.7848 F       
  28 F28            9.8878     2.9778     0.7356 F       
  29 F29            9.8193     2.4917    -1.4956 F       
  30 C30           -1.4288     1.7152     0.3653 C.3     
  31 H31           -1.3754     2.8039     0.3665 H       
  32 C32           -1.0285     1.1834     1.7430 C.3     
  33 C33           -2.8586     1.2751     0.0445 C.3     
  34 H34           -2.9120     0.1864     0.0434 H       
  35 O35           -3.2325     1.7717    -1.2422 O.3     
  36 C36           -3.8131     1.8314     1.1030 C.3     
  37 C37           -5.2223     1.2900     0.8540 C.3     
  38 H38           -5.5246     1.5200    -0.1677 H       
  39 O39           -5.2292    -0.1261     1.0456 O.3     
  40 C40           -6.1849     1.9322     1.8193 C.ar    
  41 C41           -6.2696     1.4721     3.1201 C.ar    
  42 C42           -7.1526     2.0612     4.0056 C.ar    
  43 C43           -7.9507     3.1107     3.5904 C.ar    
  44 C44           -7.8654     3.5715     2.2899 C.ar    
  45 C45           -6.9793     2.9852     1.4056 C.ar    
  46 H46           -1.0915     0.9664    -2.7738 H       
  47 H47           -1.6060     2.4900    -1.9948 H       
  48 H48            0.6216     2.3117    -3.6530 H       
  49 H49            0.4898     3.5108    -2.3248 H       
  50 H50            3.7583     1.7070    -3.4682 H       
  51 H51            2.9146     3.2678    -3.6389 H       
  52 H52            5.3632     3.5809    -3.7625 H       
  53 H53            4.6977     4.3707    -2.3167 H       
  54 H54            7.8065     3.1673    -2.5250 H       
  55 H55            6.8754     4.4537    -1.7289 H       
  56 H56            7.5987     3.7041     1.5232 H       
  57 H57            7.8095     0.9576    -0.8966 H       
  58 H58            8.1272     1.2988     0.8195 H       
  59 H59            5.7883     0.3245     0.0534 H       
  60 H60            5.8794     1.5583     1.3280 H       
  61 H61            3.9465     3.9756    -0.0180 H       
  62 H62            5.0563     3.4253     1.2602 H       
  63 H63            5.6858     4.3358    -0.1337 H       
  64 H64            3.8424     0.5728     1.1118 H       
  65 H65            3.0959     2.1829     1.1496 H       
  66 H66            1.8953    -0.3208    -0.1322 H       
  67 H67            1.3549     0.4545     1.3823 H       
  68 H68            0.3553     2.9088     1.2014 H       
  69 H69            1.9723     3.2476     0.5391 H       
  70 H70            0.5195     3.7022    -0.3835 H       
  71 H71           -0.0389     1.5588     2.0038 H       
  72 H72           -1.7518     1.5189     2.4861 H       
  73 H73           -1.0094     0.0938     1.7204 H       
  74 H74           -3.2078     2.7357    -1.3141 H       
  75 H75           -3.4759     1.5251     2.0932 H       
  76 H76           -3.8263     2.9197     1.0442 H       
  77 H77           -4.9698    -0.4040     1.9347 H       
  78 H78           -5.6460     0.6521     3.4445 H       
  79 H79           -7.2193     1.7012     5.0216 H       
  80 H80           -8.6411     3.5705     4.2820 H       
  81 H81           -8.4892     4.3913     1.9655 H       
  82 H82           -6.9100     3.3476     0.3906 H       
@<TRIPOS>BOND
   1    1    2 1
   2    2   24 1
   3    2    3 1
   4    2   30 1
   5    3    4 1
   6    3   46 1
   7    3   47 1
   8    4    5 1
   9    4   48 1
  10    4   49 1
  11    5   24 1
  12    5    6 1
  13    5    7 1
  14    7   20 1
  15    7    8 1
  16    7    9 1
  17    9   10 1
  18    9   50 1
  19    9   51 1
  20   10   11 1
  21   10   52 1
  22   10   53 1
  23   11   18 1
  24   11   12 1
  25   11   13 1
  26   13   14 1
  27   13   54 1
  28   13   55 1
  29   14   15 1
  30   14   16 1
  31   14   26 1
  32   15   56 1
  33   16   17 1
  34   16   57 1
  35   16   58 1
  36   17   18 1
  37   17   59 1
  38   17   60 1
  39   18   19 1
  40   18   20 1
  41   19   61 1
  42   19   62 1
  43   19   63 1
  44   20   21 1
  45   20   22 1
  46   22   23 1
  47   22   64 1
  48   22   65 1
  49   23   24 1
  50   23   66 1
  51   23   67 1
  52   24   25 1
  53   25   68 1
  54   25   69 1
  55   25   70 1
  56   26   27 1
  57   26   28 1
  58   26   29 1
  59   30   31 1
  60   30   32 1
  61   30   33 1
  62   32   71 1
  63   32   72 1
  64   32   73 1
  65   33   34 1
  66   33   35 1
  67   33   36 1
  68   35   74 1
  69   36   37 1
  70   36   75 1
  71   36   76 1
  72   37   38 1
  73   37   39 1
  74   37   40 1
  75   39   77 1
  76   40   45 ar
  77   40   41 ar
  78   41   42 ar
  79   41   78 1
  80   42   43 ar
  81   42   79 1
  82   43   44 ar
  83   43   80 1
  84   44   45 ar
  85   44   81 1
  86   45   82 1

#	End of record

