#	Name: ASD01918617
#	Creating user name:	WinNT
#	Creation time:	15. 06. 2019 20:11

#	Modifying user name:	WinNT
#	Modification time:	15. 06. 2019 20:11

#	Program:	/corina/corina34_cracker 3.40 0067  02.08.2006

@<TRIPOS>MOLECULE
ASD01918617
  42   45    0    0    0
SMALL
NO_CHARGES


@<TRIPOS>ATOM
   1 F1             0.0021    -0.0041     0.0020 F       
   2 C2            -0.0169     1.3948     0.0097 C.3     
   3 F3            -0.8825     1.9316    -0.9493 F       
   4 C4            -0.1957     2.0007     1.4117 C.3     
   5 C5             1.3367     1.9677     1.5356 C.3     
   6 C6             1.3836     2.0299    -0.0003 C.3     
   7 C7             1.9011     3.1586     2.1914 C.1     
   8 C8             2.3512     4.1084     2.7145 C.1     
   9 C9             2.9002     5.2669     3.3525 C.ar    
  10 C10            2.0664     6.2911     3.8021 C.ar    
  11 N11            2.5712     7.3567     4.3890 N.ar    
  12 C12            3.8690     7.5003     4.5752 C.ar    
  13 C13            4.7619     6.5294     4.1584 C.ar    
  14 C14            4.2817     5.3881     3.5407 C.ar    
  15 C15            6.2416     6.7105     4.3791 C.3     
  16 H16            6.8096     6.0757     3.6990 H       
  17 N17            6.6208     8.1213     4.2071 N.am    
  18 C18            7.1261     8.5783     5.3610 C.2     
  19 O19            7.5217     9.7180     5.5064 O.2     
  20 O20            7.1546     7.6654     6.3384 O.3     
  21 C21            6.6121     6.4032     5.8429 C.3     
  22 H22            5.7257     6.1186     6.4098 H       
  23 C23            7.6536     5.3159     5.9072 C.ar    
  24 C24            8.9936     5.6350     5.7927 C.ar    
  25 C25            9.9497     4.6380     5.8521 C.ar    
  26 C26            9.5660     3.3218     6.0253 C.ar    
  27 C27            8.2247     3.0017     6.1399 C.ar    
  28 Cl28           7.7420     1.3485     6.3582 Cl      
  29 C29            7.2689     4.0003     6.0862 C.ar    
  30 H30           -0.6114     3.0083     1.4022 H       
  31 H31           -0.7047     1.3384     2.1120 H       
  32 H32            1.7216     1.0345     1.9468 H       
  33 H33            2.1496     1.3911    -0.4399 H       
  34 H34            1.3997     3.0455    -0.3958 H       
  35 H35            0.9980     6.2096     3.6675 H       
  36 H36            4.2408     8.3906     5.0607 H       
  37 H37            4.9561     4.6125     3.2088 H       
  38 H38            6.5216     8.6367     3.3914 H       
  39 H39            9.2939     6.6634     5.6566 H       
  40 H40           10.9966     4.8879     5.7626 H       
  41 H41           10.3129     2.5430     6.0709 H       
  42 H42            6.2221     3.7516     6.1797 H       
@<TRIPOS>BOND
   1    1    2 1
   2    2    6 1
   3    2    3 1
   4    2    4 1
   5    4    5 1
   6    4   30 1
   7    4   31 1
   8    5    6 1
   9    5    7 1
  10    5   32 1
  11    6   33 1
  12    6   34 1
  13    7    8 3
  14    8    9 1
  15    9   14 ar
  16    9   10 ar
  17   10   11 ar
  18   10   35 1
  19   11   12 ar
  20   12   13 ar
  21   12   36 1
  22   13   14 ar
  23   13   15 1
  24   14   37 1
  25   15   16 1
  26   15   21 1
  27   15   17 1
  28   17   18 am
  29   17   38 1
  30   18   19 2
  31   18   20 1
  32   20   21 1
  33   21   22 1
  34   21   23 1
  35   23   29 ar
  36   23   24 ar
  37   24   25 ar
  38   24   39 1
  39   25   26 ar
  40   25   40 1
  41   26   27 ar
  42   26   41 1
  43   27   28 1
  44   27   29 ar
  45   29   42 1

#	End of record

