#	Name: ASD05720139
#	Creating user name:	WinNT
#	Creation time:	15. 06. 2019 21:01

#	Modifying user name:	WinNT
#	Modification time:	15. 06. 2019 21:01

#	Program:	/corina/corina34_cracker 3.40 0067  02.08.2006

@<TRIPOS>MOLECULE
ASD05720139
  56   56    0    0    0
SMALL
NO_CHARGES


@<TRIPOS>ATOM
   1 C1            -0.0187     1.5258     0.0104 C.3     
   2 C2             0.0021    -0.0041     0.0020 C.3     
   3 C3             0.7421    -0.5109     1.2415 C.3     
   4 S4            -1.6997    -0.6320     0.0149 S.o     
   5 O5            -1.6913    -2.0286    -0.2471 O.2     
   6 N6            -2.3418     0.0035    -1.3730 N.am    
   7 C7             0.7182    -0.4975    -1.2568 C.3     
   8 C8            -3.7338    -0.2785    -1.7322 C.3     
   9 C9            -4.6295     0.8567    -1.2323 C.3     
  10 C10           -3.8533    -0.3901    -3.2303 C.ar    
  11 C11           -4.6656    -1.3600    -3.7879 C.ar    
  12 C12           -4.7758    -1.4631    -5.1633 C.ar    
  13 C13           -4.0709    -0.5927    -5.9812 C.ar    
  14 C14           -3.2587     0.3769    -5.4201 C.ar    
  15 C15           -3.1551     0.4809    -4.0453 C.ar    
  16 F16           -4.1766    -0.6918    -7.3245 F       
  17 F17           -5.5690    -2.4109    -5.7090 F       
  18 O18           -4.6065     0.8877     0.1962 O.3     
  19 Si19          -5.5295     2.0633     0.8491 Si      
  20 C20           -4.9325     3.7245     0.2535 C.3     
  21 C21           -7.3029     1.8191     0.3330 C.3     
  22 C22           -5.4075     1.9890     2.7066 C.3     
  23 C23           -3.9511     2.1895     3.1305 C.3     
  24 C24           -6.2734     3.0917     3.3191 C.3     
  25 C25           -5.8978     0.6247     3.1958 C.3     
  26 H26            1.0039     1.9031     0.0027 H       
  27 H27           -0.5459     1.8868    -0.8726 H       
  28 H28           -0.5289     1.8773     0.9072 H       
  29 H29            0.2319    -0.1594     2.1383 H       
  30 H30            0.7568    -1.6008     1.2356 H       
  31 H31            1.7647    -0.1336     1.2338 H       
  32 H32           -1.7962     0.5625    -1.9482 H       
  33 H33            1.7408    -0.1202    -1.2645 H       
  34 H34            0.7330    -1.5874    -1.2628 H       
  35 H35            0.1910    -0.1364    -2.1398 H       
  36 H36           -4.0449    -1.2163    -1.2720 H       
  37 H37           -4.2639     1.8066    -1.6223 H       
  38 H38           -5.6508     0.6918    -1.5757 H       
  39 H39           -5.2138    -2.0374    -3.1499 H       
  40 H40           -2.7090     1.0550    -6.0559 H       
  41 H41           -2.5245     1.2408    -3.6078 H       
  42 H42           -5.0040     3.7679    -0.8333 H       
  43 H43           -5.5494     4.5101     0.6899 H       
  44 H44           -3.8950     3.8673     0.5555 H       
  45 H45           -7.6522     0.8471     0.6815 H       
  46 H46           -7.9198     2.6047     0.7694 H       
  47 H47           -7.3743     1.8625    -0.7537 H       
  48 H48           -3.6018     3.1614     2.7820 H       
  49 H49           -3.8797     2.1460     4.2173 H       
  50 H50           -3.3343     1.4039     2.6941 H       
  51 H51           -7.3109     2.9488     3.0172 H       
  52 H52           -6.2020     3.0482     4.4059 H       
  53 H53           -5.9241     4.0636     2.9707 H       
  54 H54           -5.2809    -0.1609     2.7594 H       
  55 H55           -5.8264     0.5812     4.2826 H       
  56 H56           -6.9353     0.4818     2.8938 H       
@<TRIPOS>BOND
   1    1    2 1
   2    1   26 1
   3    1   27 1
   4    1   28 1
   5    2    3 1
   6    2    4 1
   7    2    7 1
   8    3   29 1
   9    3   30 1
  10    3   31 1
  11    4    5 2
  12    4    6 am
  13    6    8 1
  14    6   32 1
  15    7   33 1
  16    7   34 1
  17    7   35 1
  18    8    9 1
  19    8   10 1
  20    8   36 1
  21    9   18 1
  22    9   37 1
  23    9   38 1
  24   10   11 ar
  25   10   15 ar
  26   11   12 ar
  27   11   39 1
  28   12   13 ar
  29   12   17 1
  30   13   14 ar
  31   13   16 1
  32   14   15 ar
  33   14   40 1
  34   15   41 1
  35   18   19 1
  36   19   20 1
  37   19   21 1
  38   19   22 1
  39   20   42 1
  40   20   43 1
  41   20   44 1
  42   21   45 1
  43   21   46 1
  44   21   47 1
  45   22   23 1
  46   22   25 1
  47   22   24 1
  48   23   48 1
  49   23   49 1
  50   23   50 1
  51   24   51 1
  52   24   52 1
  53   24   53 1
  54   25   54 1
  55   25   55 1
  56   25   56 1

#	End of record

