#	Name: ASD01948311
#	Creating user name:	WinNT
#	Creation time:	15. 06. 2019 20:14

#	Modifying user name:	WinNT
#	Modification time:	15. 06. 2019 20:14

#	Program:	/corina/corina34_cracker 3.40 0067  02.08.2006

@<TRIPOS>MOLECULE
ASD01948311
  54   56    0    0    0
SMALL
NO_CHARGES


@<TRIPOS>ATOM
   1 C1            -0.1461     0.8978     0.3544 C.2     
   2 N2            -0.1975    -0.4147     0.7219 N.am    
   3 C3             0.9215    -1.0939     1.0337 C.2     
   4 C4             2.2342     0.8714     0.6138 C.2     
   5 C5             1.0363     1.5541     0.2931 C.2     
   6 C6             2.7342     3.0442     2.2907 C.ar    
   7 C7             3.6814     2.6513     1.3546 C.ar    
   8 N8             3.4535     1.5253     0.5566 N.pl3   
   9 C9             2.9618     4.1569     3.0770 C.ar    
  10 C10            4.1314     4.8806     2.9331 C.ar    
  11 C11            5.0782     4.4933     2.0027 C.ar    
  12 C12            4.8572     3.3805     1.2120 C.ar    
  13 N13            1.0744     2.9056    -0.0873 N.am    
  14 S14           -0.3331     3.7122    -0.4196 S.o2    
  15 C15           -1.0011     2.8731    -1.8826 C.3     
  16 O16            0.8487    -2.2690     1.3603 O.2     
  17 C17           -1.4929    -1.0965     0.7785 C.3     
  18 F18            5.7821     3.0020     0.3029 F       
  19 C19            4.3749     6.0941     3.7929 C.3     
  20 O20           -1.1538     3.4668     0.7142 O.2     
  21 O21            0.0870     5.0292    -0.7486 O.2     
  22 C22            2.1672    -0.4609     0.9852 C.2     
  23 C23           -1.4886    -2.2810    -0.1900 C.3     
  24 C24           -1.7417    -1.6017     2.2010 C.3     
  25 C25            3.4219    -1.2192     1.3340 C.3     
  26 C26           -2.2996     3.5023    -2.4144 C.3     
  27 C27           -1.7440     3.2627    -3.8281 C.3     
  28 C28           -0.3411     3.3129    -3.2001 C.3     
  29 H29           -1.0589     1.4183     0.1052 H       
  30 H30            1.8181     2.4829     2.4009 H       
  31 H31            4.1496     1.2024    -0.0368 H       
  32 H32            2.2250     4.4624     3.8051 H       
  33 H33            5.9903     5.0610     1.8926 H       
  34 H34            1.9252     3.3665    -0.1553 H       
  35 H35           -1.0580     1.7914    -1.7609 H       
  36 H36           -2.2827    -0.3999     0.4970 H       
  37 H37            4.8870     5.7947     4.7074 H       
  38 H38            4.9927     6.8077     3.2476 H       
  39 H39            3.4213     6.5577     4.0456 H       
  40 H40           -0.6989    -2.9775     0.0915 H       
  41 H41           -2.4525    -2.7882    -0.1479 H       
  42 H42           -1.3114    -1.9210    -1.2035 H       
  43 H43           -1.7447    -0.7578     2.8910 H       
  44 H44           -2.7055    -2.1089     2.2431 H       
  45 H45           -0.9519    -2.2983     2.4825 H       
  46 H46            3.1579    -2.2169     1.6847 H       
  47 H47            4.0549    -1.3004     0.4503 H       
  48 H48            3.9606    -0.6888     2.1192 H       
  49 H49           -3.1918     2.9172    -2.1910 H       
  50 H50           -2.4094     4.5568    -2.1613 H       
  51 H51           -2.0034     2.2874    -4.2398 H       
  52 H52           -1.9422     4.0815    -4.5198 H       
  53 H53            0.0845     4.3156    -3.1618 H       
  54 H54            0.3478     2.5749    -3.6109 H       
@<TRIPOS>BOND
   1    1    2 1
   2    1    5 2
   3    1   29 1
   4    2    3 am
   5    2   17 1
   6    3   22 1
   7    3   16 2
   8    4    5 1
   9    4    8 1
  10    4   22 2
  11    5   13 1
  12    6    7 ar
  13    6    9 ar
  14    6   30 1
  15    7    8 1
  16    7   12 ar
  17    8   31 1
  18    9   10 ar
  19    9   32 1
  20   10   11 ar
  21   10   19 1
  22   11   12 ar
  23   11   33 1
  24   12   18 1
  25   13   14 am
  26   13   34 1
  27   14   15 1
  28   14   20 2
  29   14   21 2
  30   15   26 1
  31   15   28 1
  32   15   35 1
  33   17   23 1
  34   17   24 1
  35   17   36 1
  36   19   37 1
  37   19   38 1
  38   19   39 1
  39   22   25 1
  40   23   40 1
  41   23   41 1
  42   23   42 1
  43   24   43 1
  44   24   44 1
  45   24   45 1
  46   25   46 1
  47   25   47 1
  48   25   48 1
  49   26   27 1
  50   26   49 1
  51   26   50 1
  52   27   28 1
  53   27   51 1
  54   27   52 1
  55   28   53 1
  56   28   54 1

#	End of record

