#	Name: ASD01884647
#	Creating user name:	WinNT
#	Creation time:	15. 06. 2019 19:48

#	Modifying user name:	WinNT
#	Modification time:	15. 06. 2019 19:48

#	Program:	/corina/corina34_cracker 3.40 0067  02.08.2006

@<TRIPOS>MOLECULE
ASD01884647
  53   55    0    0    0
SMALL
NO_CHARGES


@<TRIPOS>ATOM
   1 C1            -0.0168     1.3884     0.0097 C.2     
   2 C2             0.0021    -0.0041     0.0020 C.2     
   3 C3            -1.2095    -0.6965     0.0104 C.2     
   4 C4            -2.3831    -0.0157     0.0252 C.2     
   5 N5            -2.4093     1.3392     0.0327 N.am    
   6 C6            -1.2693     2.0558     0.0312 C.2     
   7 O7            -1.3129     3.2741     0.0383 O.2     
   8 C8            -3.6983     2.0352     0.0483 C.3     
   9 C9             1.2059     2.1337     0.0020 C.1     
  10 N10            2.1759     2.7249    -0.0041 N.1     
  11 C11            1.3105    -0.7515    -0.0155 C.3     
  12 C12            1.6999    -1.1158     1.3940 C.2     
  13 C13            2.4411    -0.1017     2.2195 C.3     
  14 C14            2.3756    -0.4920     3.6983 C.3     
  15 N15            2.7472    -1.9112     3.8231 N.3     
  16 C16            1.7077    -2.7618     3.2297 C.3     
  17 C17            1.3757    -2.2898     1.8436 C.2     
  18 C18            2.9727    -2.2542     5.1585 C.ar    
  19 C19           -4.1338     2.2698     1.4962 C.3     
  20 C20           -5.4800     2.9967     1.5124 C.3     
  21 C21           -5.9155     3.2312     2.9603 C.3     
  22 C22            3.3369    -3.5536     5.5027 C.ar    
  23 C23            3.5495    -3.8450     6.8403 C.ar    
  24 C24            3.3947    -2.8452     7.7821 C.ar    
  25 N25            3.0489    -1.6240     7.4238 N.ar    
  26 C26            2.8426    -1.3026     6.1624 C.ar    
  27 C27            3.9446    -5.2363     7.2637 C.3     
  28 H28           -1.2130    -1.7765     0.0046 H       
  29 H29           -3.3137    -0.5638     0.0308 H       
  30 H30           -3.5999     2.9937    -0.4613 H       
  31 H31           -4.4456     1.4275    -0.4619 H       
  32 H32            1.2023    -1.6595    -0.6087 H       
  33 H33            2.0835    -0.1207    -0.4544 H       
  34 H34            3.4826    -0.0653     1.8999 H       
  35 H35            1.9862     0.8794     2.0829 H       
  36 H36            3.0725     0.1208     4.2701 H       
  37 H37            1.3621    -0.3445     4.0715 H       
  38 H38            2.0641    -3.7910     3.1875 H       
  39 H39            0.8101    -2.7183     3.8466 H       
  40 H40            0.8471    -2.9632     1.1852 H       
  41 H41           -4.2323     1.3113     2.0058 H       
  42 H42           -3.3866     2.8775     2.0064 H       
  43 H43           -5.3816     3.9552     1.0028 H       
  44 H44           -6.2273     2.3889     1.0022 H       
  45 H45           -5.1683     3.8390     3.4705 H       
  46 H46           -6.8746     3.7491     2.9718 H       
  47 H47           -6.0140     2.2727     3.4699 H       
  48 H48            3.4504    -4.3154     4.7456 H       
  49 H49            3.5590    -3.0672     8.8262 H       
  50 H50            2.5604    -0.2917     5.9075 H       
  51 H51            5.0313    -5.3216     7.2627 H       
  52 H52            3.5658    -5.4322     8.2668 H       
  53 H53            3.5226    -5.9615     6.5679 H       
@<TRIPOS>BOND
   1    1    2 2
   2    1    9 1
   3    1    6 1
   4    2    3 1
   5    2   11 1
   6    3    4 2
   7    3   28 1
   8    4    5 1
   9    4   29 1
  10    5    8 1
  11    5    6 am
  12    6    7 2
  13    8   19 1
  14    8   30 1
  15    8   31 1
  16    9   10 3
  17   11   12 1
  18   11   32 1
  19   11   33 1
  20   12   13 1
  21   12   17 2
  22   13   14 1
  23   13   34 1
  24   13   35 1
  25   14   15 1
  26   14   36 1
  27   14   37 1
  28   15   16 1
  29   15   18 1
  30   16   17 1
  31   16   38 1
  32   16   39 1
  33   17   40 1
  34   18   22 ar
  35   18   26 ar
  36   19   20 1
  37   19   41 1
  38   19   42 1
  39   20   21 1
  40   20   43 1
  41   20   44 1
  42   21   45 1
  43   21   46 1
  44   21   47 1
  45   22   23 ar
  46   22   48 1
  47   23   24 ar
  48   23   27 1
  49   24   25 ar
  50   24   49 1
  51   25   26 ar
  52   26   50 1
  53   27   51 1
  54   27   52 1
  55   27   53 1

#	End of record

