#	Name: ASD01883734
#	Creating user name:	WinNT
#	Creation time:	15. 06. 2019 19:47

#	Modifying user name:	WinNT
#	Modification time:	15. 06. 2019 19:47

#	Program:	/corina/corina34_cracker 3.40 0067  02.08.2006

@<TRIPOS>MOLECULE
ASD01883734
  58   61    0    0    0
SMALL
NO_CHARGES


@<TRIPOS>ATOM
   1 C1            -0.2349     1.0796    -0.6368 C.2     
   2 C2            -0.1402    -0.3009    -0.5284 C.2     
   3 C3            -1.3270    -1.0693    -0.5365 C.2     
   4 C4            -2.5230    -0.4543    -0.6486 C.2     
   5 N5            -2.6069     0.8987    -0.7544 N.am    
   6 C6            -1.5029     1.6682    -0.7455 C.2     
   7 O7            -1.6051     2.8812    -0.8416 O.2     
   8 Cl8            1.1952     2.0636    -0.6308 Cl      
   9 C9            -3.9232     1.5305    -0.8749 C.3     
  10 C10            1.1809    -0.9575    -0.4068 C.ar    
  11 C11            1.5176    -1.6420     0.7609 C.ar    
  12 C12            2.7531    -2.2561     0.8741 C.ar    
  13 C13            3.6600    -2.1949    -0.1802 C.ar    
  14 C14            3.3209    -1.5085    -1.3449 C.ar    
  15 C15            2.0919    -0.8990    -1.4622 C.ar    
  16 C16           -4.4613     1.8578     0.5194 C.3     
  17 C17           -5.8360     2.5177     0.3936 C.3     
  18 C18           -6.3741     2.8450     1.7879 C.3     
  19 O19            3.0549    -2.9067     2.0317 O.3     
  20 C20            4.1800    -3.7909     1.9975 C.3     
  21 C21            5.3239    -3.0705     1.2722 C.3     
  22 N22            4.9105    -2.8101    -0.1114 N.3     
  23 C23            5.9247    -2.0221    -0.8245 C.3     
  24 C24            7.2675    -2.7538    -0.7739 C.3     
  25 C25            8.3238    -1.9331    -1.5165 C.3     
  26 C26            8.4647    -0.5622    -0.8519 C.3     
  27 C27            7.1219     0.1695    -0.9025 C.3     
  28 C28            6.0656    -0.6512    -0.1598 C.3     
  29 O29            9.4513     0.2043    -1.5455 O.3     
  30 H30           -1.2766    -2.1450    -0.4537 H       
  31 H31           -3.4268    -1.0455    -0.6548 H       
  32 H32           -3.8335     2.4492    -1.4546 H       
  33 H33           -4.6088     0.8488    -1.3782 H       
  34 H34            0.8134    -1.6927     1.5782 H       
  35 H35            4.0251    -1.4578    -2.1621 H       
  36 H36            1.8362    -0.3688    -2.3677 H       
  37 H37           -4.5510     0.9392     1.0992 H       
  38 H38           -3.7757     2.5396     1.0227 H       
  39 H39           -5.7463     3.4364    -0.1861 H       
  40 H40           -6.5216     1.8360    -0.1097 H       
  41 H41           -7.3534     3.3151     1.6983 H       
  42 H42           -6.4638     1.9263     2.3677 H       
  43 H43           -5.6885     3.5268     2.2912 H       
  44 H44            4.4857    -4.0383     3.0141 H       
  45 H45            3.9172    -4.7013     1.4588 H       
  46 H46            5.5384    -2.1268     1.7738 H       
  47 H47            6.2136    -3.7003     1.2759 H       
  48 H48            5.6203    -1.8928    -1.8631 H       
  49 H49            7.5719    -2.8831     0.2648 H       
  50 H50            7.1671    -3.7304    -1.2474 H       
  51 H51            9.2804    -2.4544    -1.4804 H       
  52 H52            8.0194    -1.8038    -2.5551 H       
  53 H53            8.7691    -0.6915     0.1868 H       
  54 H54            7.2223     1.1461    -0.4290 H       
  55 H55            6.8175     0.2988    -1.9411 H       
  56 H56            5.1090    -0.1299    -0.1959 H       
  57 H57            6.3700    -0.7805     0.8788 H       
  58 H58            9.5934     1.0873    -1.1777 H       
@<TRIPOS>BOND
   1    1    2 2
   2    1    8 1
   3    1    6 1
   4    2    3 1
   5    2   10 1
   6    3    4 2
   7    3   30 1
   8    4    5 1
   9    4   31 1
  10    5    6 am
  11    5    9 1
  12    6    7 2
  13    9   16 1
  14    9   32 1
  15    9   33 1
  16   10   11 ar
  17   10   15 ar
  18   11   12 ar
  19   11   34 1
  20   12   13 ar
  21   12   19 1
  22   13   14 ar
  23   13   22 1
  24   14   15 ar
  25   14   35 1
  26   15   36 1
  27   16   17 1
  28   16   37 1
  29   16   38 1
  30   17   18 1
  31   17   39 1
  32   17   40 1
  33   18   41 1
  34   18   42 1
  35   18   43 1
  36   19   20 1
  37   20   21 1
  38   20   44 1
  39   20   45 1
  40   21   22 1
  41   21   46 1
  42   21   47 1
  43   22   23 1
  44   23   24 1
  45   23   28 1
  46   23   48 1
  47   24   25 1
  48   24   49 1
  49   24   50 1
  50   25   26 1
  51   25   51 1
  52   25   52 1
  53   26   27 1
  54   26   29 1
  55   26   53 1
  56   27   28 1
  57   27   54 1
  58   27   55 1
  59   28   56 1
  60   28   57 1
  61   29   58 1

#	End of record

