#	Name: ASD01320045
#	Creating user name:	WinNT
#	Creation time:	15. 06. 2019 19:15

#	Modifying user name:	WinNT
#	Modification time:	15. 06. 2019 19:15

#	Program:	/corina/corina34_cracker 3.40 0067  02.08.2006

@<TRIPOS>MOLECULE
ASD01320045
  15   16    0    0    0
SMALL
NO_CHARGES


@<TRIPOS>ATOM
   1 N1            -0.0158     1.3167     0.0093 N.ar    
   2 C2             0.0021    -0.0041     0.0020 C.ar    
   3 N3             1.1197    -0.6957    -0.0124 N.ar    
   4 C4             2.3037    -0.0747    -0.0203 C.ar    
   5 C5             2.3277     1.3295    -0.0130 C.ar    
   6 C6             1.1138     2.0193     0.0023 C.ar    
   7 N7             1.0863     3.4045     0.0095 N.pl3   
   8 N8             3.5853    -0.4867    -0.0355 N.2     
   9 C9             4.3810     0.5463    -0.0380 C.2     
  10 N10            3.6588     1.6893    -0.0245 N.pl3   
  11 H11           -0.9377    -0.5361     0.0085 H       
  12 H12            0.2369     3.8727     0.0198 H       
  13 H13            1.9166     3.9061     0.0043 H       
  14 H14            5.4598     0.4963    -0.0488 H       
  15 H15            4.0110     2.5930    -0.0235 H       
@<TRIPOS>BOND
   1    1    2 ar
   2    1    6 ar
   3    2    3 ar
   4    2   11 1
   5    3    4 ar
   6    4    5 ar
   7    4    8 1
   8    5    6 ar
   9    5   10 1
  10    6    7 1
  11    7   12 1
  12    7   13 1
  13    8    9 2
  14    9   10 1
  15    9   14 1
  16   10   15 1

#	End of record

