#	Name: ASD03430180
#	Creating user name:	WinNT
#	Creation time:	15. 06. 2019 20:40

#	Modifying user name:	WinNT
#	Modification time:	15. 06. 2019 20:40

#	Program:	/corina/corina34_cracker 3.40 0067  02.08.2006

@<TRIPOS>MOLECULE
ASD03430180
  69   74    0    0    0
SMALL
NO_CHARGES


@<TRIPOS>ATOM
   1 C1            -0.0252     1.6425     2.1213 C.ar    
   2 C2             0.0255     0.2711     2.0008 C.ar    
   3 C3             1.2236    -0.3932     2.1603 C.ar    
   4 C4             2.3875     0.3131     2.4525 C.ar    
   5 C5             2.3298     1.6971     2.5618 C.ar    
   6 C6             1.1263     2.3714     2.3940 C.ar    
   7 O7             3.4497    -0.5284     2.6049 O.3     
   8 C8             1.6118    -1.8443     2.0748 C.3     
   9 C9             3.1442    -1.7947     1.9902 C.3     
  10 C10            0.3601    -3.6630     2.7397 C.ar    
  11 C11            1.1422    -2.6347     3.2595 C.ar    
  12 C12            1.0131    -2.5256     0.8777 C.2     
  13 N13            0.3057    -3.5725     1.3467 N.am    
  14 O14            1.1406    -2.1977    -0.2830 O.2     
  15 C15            1.3355    -2.5209     4.6183 C.ar    
  16 C16            0.7527    -3.4327     5.4806 C.ar    
  17 C17           -0.0240    -4.4593     4.9749 C.ar    
  18 C18           -0.2210    -4.5773     3.6150 C.ar    
  19 C19           -0.4345    -4.5067     0.4948 C.3     
  20 C20           -1.1676     2.6344     2.0242 C.3     
  21 C21           -0.5464     3.9020     2.6574 C.3     
  22 O22            0.8618     3.7066     2.4446 O.3     
  23 C23           -1.8416    -4.0030     0.3013 C.ar    
  24 C24           -2.1330    -3.1644    -0.7599 C.ar    
  25 C25           -3.4190    -2.6994    -0.9426 C.ar    
  26 C26           -4.4271    -3.0771    -0.0542 C.ar    
  27 C27           -4.1264    -3.9237     1.0140 C.ar    
  28 C28           -2.8374    -4.3858     1.1822 C.ar    
  29 C29           -5.8073    -2.5822    -0.2436 C.2     
  30 N30           -6.7785    -2.9487     0.6160 N.am    
  31 O31           -6.0662    -1.8447    -1.1745 O.2     
  32 C32           -8.1462    -2.4583     0.4284 C.3     
  33 C33           -9.0451    -3.0194     1.5320 C.3     
  34 C34           -8.5980    -2.4638     2.8856 C.3     
  35 C35           -9.3984    -3.1366     4.0026 C.3     
  36 C36          -10.4951    -2.6097     1.2663 C.3     
  37 C37          -10.9877    -3.2809    -0.0173 C.3     
  38 H38           -0.8742    -0.2847     1.7815 H       
  39 H39            3.2289     2.2542     2.7799 H       
  40 H40            3.4753    -1.8108     0.9519 H       
  41 H41            3.5896    -2.6154     2.5525 H       
  42 H42            1.9423    -1.7186     5.0114 H       
  43 H43            0.9044    -3.3431     6.5461 H       
  44 H44           -0.4778    -5.1717     5.6478 H       
  45 H45           -0.8289    -5.3815     3.2273 H       
  46 H46            0.0598    -4.5851    -0.4735 H       
  47 H47           -0.4618    -5.4876     0.9694 H       
  48 H48           -1.4411     2.8127     0.9842 H       
  49 H49           -2.0289     2.2940     2.5990 H       
  50 H50           -0.8935     4.7993     2.1452 H       
  51 H51           -0.7727     3.9521     3.7225 H       
  52 H52           -1.3521    -2.8729    -1.4466 H       
  53 H53           -3.6451    -2.0443    -1.7709 H       
  54 H54           -4.9020    -4.2197     1.7049 H       
  55 H55           -2.6034    -5.0409     2.0083 H       
  56 H56           -6.5720    -3.5373     1.3589 H       
  57 H57           -8.1512    -1.3693     0.4742 H       
  58 H58           -8.5184    -2.7827    -0.5434 H       
  59 H59           -8.9710    -4.1068     1.5432 H       
  60 H60           -7.5361    -2.6644     3.0280 H       
  61 H61           -8.7712    -1.3879     2.9119 H       
  62 H62           -9.3035    -4.2190     3.9163 H       
  63 H63           -9.0137    -2.8141     4.9702 H       
  64 H64          -10.4482    -2.8559     3.9171 H       
  65 H65          -11.1201    -2.9225     2.1028 H       
  66 H66          -10.5522    -1.5269     1.1551 H       
  67 H67          -10.3202    -3.0251    -0.8403 H       
  68 H68          -10.9983    -4.3623     0.1191 H       
  69 H69          -11.9953    -2.9335    -0.2453 H       
@<TRIPOS>BOND
   1    1    2 ar
   2    1    6 ar
   3    1   20 1
   4    2    3 ar
   5    2   38 1
   6    3    4 ar
   7    3    8 1
   8    4    5 ar
   9    4    7 1
  10    5    6 ar
  11    5   39 1
  12    6   22 1
  13    7    9 1
  14    8    9 1
  15    8   11 1
  16    8   12 1
  17    9   40 1
  18    9   41 1
  19   10   11 ar
  20   10   13 1
  21   10   18 ar
  22   11   15 ar
  23   12   13 am
  24   12   14 2
  25   13   19 1
  26   15   16 ar
  27   15   42 1
  28   16   17 ar
  29   16   43 1
  30   17   18 ar
  31   17   44 1
  32   18   45 1
  33   19   23 1
  34   19   46 1
  35   19   47 1
  36   20   21 1
  37   20   48 1
  38   20   49 1
  39   21   22 1
  40   21   50 1
  41   21   51 1
  42   23   24 ar
  43   23   28 ar
  44   24   25 ar
  45   24   52 1
  46   25   26 ar
  47   25   53 1
  48   26   27 ar
  49   26   29 1
  50   27   28 ar
  51   27   54 1
  52   28   55 1
  53   29   30 am
  54   29   31 2
  55   30   32 1
  56   30   56 1
  57   32   33 1
  58   32   57 1
  59   32   58 1
  60   33   34 1
  61   33   36 1
  62   33   59 1
  63   34   35 1
  64   34   60 1
  65   34   61 1
  66   35   62 1
  67   35   63 1
  68   35   64 1
  69   36   37 1
  70   36   65 1
  71   36   66 1
  72   37   67 1
  73   37   68 1
  74   37   69 1

#	End of record

