#	Name: ASD01912152
#	Creating user name:	WinNT
#	Creation time:	15. 06. 2019 19:59

#	Modifying user name:	WinNT
#	Modification time:	15. 06. 2019 19:59

#	Program:	/corina/corina34_cracker 3.40 0067  02.08.2006

@<TRIPOS>MOLECULE
ASD01912152
  41   44    0    0    0
SMALL
NO_CHARGES


@<TRIPOS>ATOM
   1 Cl1            7.1300     6.9301    -1.9191 Cl      
   2 C2            -0.3323     2.2991    -0.6226 C.3     
   3 C3             1.0720     2.8447    -0.6600 C.2     
   4 N4             2.1165     2.3146    -0.0941 N.2     
   5 O5             3.1030     2.9881    -0.3044 O.3     
   6 C6             2.7717     4.0537    -1.0532 C.2     
   7 N7             1.4707     3.9609    -1.2874 N.2     
   8 C8             3.6755     5.1108    -1.5245 C.2     
   9 C9             5.0286     5.1935    -1.2794 C.2     
  10 C10            5.4926     6.3534    -1.9132 C.2     
  11 C11            4.4368     6.9445    -2.5203 C.2     
  12 N12            3.3257     6.1943    -2.2954 N.pl3   
  13 C13           -0.3539     0.9012    -1.2451 C.3     
  14 C14           -1.7852     0.3596    -1.2374 C.3     
  15 C15           -2.2787     0.2526     0.2089 C.3     
  16 N16           -2.1252     1.5612     0.8590 N.am    
  17 C17           -0.8093     2.2141     0.8306 C.3     
  18 C18           -3.1717     2.1515     1.4697 C.2     
  19 O19           -3.0161     3.2011     2.0631 O.2     
  20 C20           -4.5076     1.5231     1.4180 C.ar    
  21 C21           -4.6716     0.1713     1.7479 C.ar    
  22 C22           -5.9416    -0.3698     1.6839 C.ar    
  23 C23           -7.0035     0.4352     1.2988 C.ar    
  24 N24           -6.8177     1.7076     0.9930 N.ar    
  25 C25           -5.6274     2.2679     1.0455 C.ar    
  26 F26           -8.2468    -0.0895     1.2348 F       
  27 H27           -0.9936     2.9581    -1.1852 H       
  28 H28            5.6204     4.4953    -0.7061 H       
  29 H29            4.4722     7.8598    -3.0925 H       
  30 H30            2.4334     6.3934    -2.6196 H       
  31 H31            0.0085     0.9551    -2.2716 H       
  32 H32            0.2889     0.2366    -0.6677 H       
  33 H33           -2.4334     1.0367    -1.7938 H       
  34 H34           -1.8037    -0.6263    -1.7020 H       
  35 H35           -3.3293    -0.0380     0.2159 H       
  36 H36           -1.6879    -0.4920     0.7424 H       
  37 H37           -0.0987     1.6294     1.4149 H       
  38 H38           -0.8903     3.2178     1.2480 H       
  39 H39           -3.8268    -0.4327     2.0443 H       
  40 H40           -6.1055    -1.4084     1.9307 H       
  41 H41           -5.5150     3.3108     0.7881 H       
@<TRIPOS>BOND
   1    1   10 1
   2    2   13 1
   3    2    3 1
   4    2   17 1
   5    2   27 1
   6    3    4 2
   7    3    7 1
   8    4    5 1
   9    5    6 1
  10    6    7 2
  11    6    8 1
  12    8    9 2
  13    8   12 1
  14    9   10 1
  15    9   28 1
  16   10   11 2
  17   11   12 1
  18   11   29 1
  19   12   30 1
  20   13   14 1
  21   13   31 1
  22   13   32 1
  23   14   15 1
  24   14   33 1
  25   14   34 1
  26   15   16 1
  27   15   35 1
  28   15   36 1
  29   16   17 1
  30   16   18 am
  31   17   37 1
  32   17   38 1
  33   18   19 2
  34   18   20 1
  35   20   21 ar
  36   20   25 ar
  37   21   22 ar
  38   21   39 1
  39   22   23 ar
  40   22   40 1
  41   23   24 ar
  42   23   26 1
  43   24   25 ar
  44   25   41 1

#	End of record

