#	Name: ASD01915365
#	Creating user name:	WinNT
#	Creation time:	15. 06. 2019 20:05

#	Modifying user name:	WinNT
#	Modification time:	15. 06. 2019 20:05

#	Program:	/corina/corina34_cracker 3.40 0067  02.08.2006

@<TRIPOS>MOLECULE
ASD01915365
  42   45    0    0    0
SMALL
NO_CHARGES


@<TRIPOS>ATOM
   1 C1             0.0076     1.3201    -0.0485 C.ar    
   2 C2             0.0561    -0.0717    -0.0730 C.ar    
   3 N3             1.2215    -0.7058    -0.0800 N.ar    
   4 C4             2.3643    -0.0507    -0.0641 C.ar    
   5 C5             2.3898     1.3318    -0.0390 C.ar    
   6 C6             1.1934     2.0343    -0.0315 C.ar    
   7 C7             3.7045     2.0681    -0.0201 C.3     
   8 N8             4.6656     1.3536     0.8328 N.am    
   9 C9             5.8115     0.9345     0.0054 C.3     
  10 C10            5.8191     1.9199    -1.1899 C.3     
  11 C11            4.3007     2.1145    -1.4428 C.3     
  12 C12            4.5229     1.1211     2.1527 C.2     
  13 O13            3.5833     1.6032     2.7575 O.2     
  14 C14            5.4995     0.2874     2.8597 C.2     
  15 C15           -1.2058    -0.8516    -0.0911 C.ar    
  16 C16           -1.1667    -2.2440    -0.1156 C.ar    
  17 C17           -2.3451    -2.9650    -0.1318 C.ar    
  18 C18           -3.5623    -2.3060    -0.1237 C.ar    
  19 C19           -3.6057    -0.9236    -0.0998 C.ar    
  20 C20           -2.4346    -0.1939    -0.0777 C.ar    
  21 Cl21          -2.2992    -4.7001    -0.1630 Cl      
  22 C22            5.5322     0.0766     4.2094 C.2     
  23 C23            6.5565    -0.7502     4.6059 C.2     
  24 C24            7.3367    -1.2018     3.6170 C.2     
  25 S25            6.8121    -0.6076     2.1061 S.3     
  26 H26           -0.9418     1.8350    -0.0474 H       
  27 H27            3.2937    -0.6006    -0.0704 H       
  28 H28            1.1874     3.1141    -0.0120 H       
  29 H29            3.5568     3.0806     0.3555 H       
  30 H30            6.7390     1.0180     0.5718 H       
  31 H31            5.6715    -0.0876    -0.3465 H       
  32 H32            6.2935     2.8623    -0.9162 H       
  33 H33            6.3062     1.4768    -2.0584 H       
  34 H34            3.9044     1.3033    -2.0536 H       
  35 H35            4.1082     3.0801    -1.9103 H       
  36 H36           -0.2173    -2.7587    -0.1223 H       
  37 H37           -4.4813    -2.8730    -0.1364 H       
  38 H38           -4.5581    -0.4144    -0.0943 H       
  39 H39           -2.4702     0.8854    -0.0590 H       
  40 H40            4.8241     0.5160     4.8963 H       
  41 H41            6.7198    -1.0155     5.6400 H       
  42 H42            8.1829    -1.8582     3.7562 H       
@<TRIPOS>BOND
   1    1    2 ar
   2    1    6 ar
   3    1   26 1
   4    2    3 ar
   5    2   15 1
   6    3    4 ar
   7    4    5 ar
   8    4   27 1
   9    5    6 ar
  10    5    7 1
  11    6   28 1
  12    7    8 1
  13    7   11 1
  14    7   29 1
  15    8    9 1
  16    8   12 am
  17    9   10 1
  18    9   30 1
  19    9   31 1
  20   10   11 1
  21   10   32 1
  22   10   33 1
  23   11   34 1
  24   11   35 1
  25   12   13 2
  26   12   14 1
  27   14   22 2
  28   14   25 1
  29   15   16 ar
  30   15   20 ar
  31   16   17 ar
  32   16   36 1
  33   17   18 ar
  34   17   21 1
  35   18   19 ar
  36   18   37 1
  37   19   20 ar
  38   19   38 1
  39   20   39 1
  40   22   23 1
  41   22   40 1
  42   23   24 2
  43   23   41 1
  44   24   25 1
  45   24   42 1

#	End of record

