#	Name: ASD02039019
#	Creating user name:	WinNT
#	Creation time:	15. 06. 2019 20:17

#	Modifying user name:	WinNT
#	Modification time:	15. 06. 2019 20:17

#	Program:	/corina/corina34_cracker 3.40 0067  02.08.2006

@<TRIPOS>MOLECULE
ASD02039019
  39   42    0    0    0
SMALL
NO_CHARGES


@<TRIPOS>ATOM
   1 N1             0.0233     1.2844    -0.3597 N.2     
   2 N2             0.0398    -0.0020    -0.3605 N.2     
   3 C3             1.2243     1.7332    -0.0870 C.2     
   4 O4             2.0204     0.6621     0.0889 O.3     
   5 C5             1.2410    -0.4221    -0.0909 C.2     
   6 N6             1.6034     3.0606     0.0025 N.pl3   
   7 C7             0.6399     4.0709    -0.0888 C.ar    
   8 C8             1.6809    -1.8604     0.0038 C.3     
   9 O9             2.1170    -2.3106    -1.2804 O.3     
  10 C10            2.5497    -3.5965    -1.3694 C.ar    
  11 C11            2.9843    -4.0925    -2.5824 C.ar    
  12 C12            2.5578    -4.4049    -0.2356 C.ar    
  13 C13            2.9928    -5.7101    -0.3070 C.ar    
  14 C14            3.4294    -6.2314    -1.5201 C.ar    
  15 C15            3.4282    -5.4159    -2.6676 C.ar    
  16 C16           -0.6625     3.8296     0.3289 C.ar    
  17 C17            0.9858     5.3183    -0.5919 C.ar    
  18 C18            0.0330     6.3142    -0.6811 C.ar    
  19 C19           -1.2662     6.0698    -0.2690 C.ar    
  20 C20           -1.6120     4.8284     0.2379 C.ar    
  21 N21            3.8686    -7.5366    -1.6124 N.am    
  22 C22            4.2908    -8.0430    -2.7841 C.2     
  23 C23            4.3044    -7.2687    -3.9638 C.2     
  24 O24            4.6718    -9.2000    -2.8284 O.2     
  25 C25            3.8901    -5.9778    -3.9383 C.2     
  26 F26           -2.1965     7.0455    -0.3567 F       
  27 H27            2.5372     3.2909     0.1285 H       
  28 H28            2.5020    -1.9431     0.7159 H       
  29 H29            0.8454    -2.4745     0.3397 H       
  30 H30            2.9812    -3.4627    -3.4597 H       
  31 H31            2.2200    -4.0048     0.7090 H       
  32 H32            2.9951    -6.3280     0.5787 H       
  33 H33           -0.9327     2.8616     0.7243 H       
  34 H34            1.9991     5.5096    -0.9128 H       
  35 H35            0.3015     7.2844    -1.0723 H       
  36 H36           -2.6260     4.6398     0.5585 H       
  37 H37            3.8730    -8.0966    -0.8204 H       
  38 H38            4.6502    -7.7046    -4.8895 H       
  39 H39            3.8970    -5.3783    -4.8366 H       
@<TRIPOS>BOND
   1    1    2 1
   2    1    3 2
   3    2    5 2
   4    3    4 1
   5    3    6 1
   6    4    5 1
   7    5    8 1
   8    6    7 1
   9    6   27 1
  10    7   16 ar
  11    7   17 ar
  12    8    9 1
  13    8   28 1
  14    8   29 1
  15    9   10 1
  16   10   11 ar
  17   10   12 ar
  18   11   15 ar
  19   11   30 1
  20   12   13 ar
  21   12   31 1
  22   13   14 ar
  23   13   32 1
  24   14   15 ar
  25   14   21 1
  26   15   25 1
  27   16   20 ar
  28   16   33 1
  29   17   18 ar
  30   17   34 1
  31   18   19 ar
  32   18   35 1
  33   19   20 ar
  34   19   26 1
  35   20   36 1
  36   21   22 am
  37   21   37 1
  38   22   23 1
  39   22   24 2
  40   23   25 2
  41   23   38 1
  42   25   39 1

#	End of record

