#	Name: ASD01410145
#	Creating user name:	WinNT
#	Creation time:	15. 06. 2019 19:16

#	Modifying user name:	WinNT
#	Modification time:	15. 06. 2019 19:16

#	Program:	/corina/corina34_cracker 3.40 0067  02.08.2006

@<TRIPOS>MOLECULE
ASD01410145
  32   35    0    0    0
SMALL
NO_CHARGES


@<TRIPOS>ATOM
   1 C1            -0.0227     1.3978    -0.1824 C.ar    
   2 C2             0.0011     0.0094    -0.1326 C.ar    
   3 C3            -1.1847    -0.6995    -0.0605 C.ar    
   4 C4            -2.4037    -0.0096    -0.0383 C.ar    
   5 C5            -2.4278     1.3940    -0.0887 C.ar    
   6 C6            -1.2266     2.0863    -0.1554 C.ar    
   7 C7            -3.8066    -0.4480     0.0323 C.2     
   8 C8            -4.5850     0.8004     0.0170 C.2     
   9 O9            -3.7068     1.8284    -0.0548 O.3     
  10 O10           -4.2293    -1.5899     0.0899 O.2     
  11 C11           -5.9367     0.9029     0.0658 C.2     
  12 C12           -6.5692     2.2229     0.1901 C.ar    
  13 O13            1.1442     2.0876    -0.2526 O.3     
  14 O14           -1.1672    -2.0553    -0.0121 O.3     
  15 C15           -5.7820     3.3552     0.3983 C.ar    
  16 C16           -6.3921     4.6029     0.5144 C.ar    
  17 C17           -7.7925     4.7026     0.4199 C.ar    
  18 C18           -8.5630     3.5631     0.2116 C.ar    
  19 C19           -7.9651     2.3432     0.0932 C.ar    
  20 N20           -5.9184     5.8605     0.7149 N.2     
  21 C21           -6.9113     6.7000     0.7483 C.2     
  22 N22           -8.0885     6.0406     0.5719 N.pl3   
  23 H23            0.9446    -0.5159    -0.1505 H       
  24 H24           -1.2296     3.1656    -0.1947 H       
  25 H25           -6.5478     0.0140     0.0134 H       
  26 H26            1.4483     2.2552    -1.1551 H       
  27 H27           -1.1276    -2.4163     0.8841 H       
  28 H28           -4.7080     3.2659     0.4695 H       
  29 H29           -9.6374     3.6453     0.1399 H       
  30 H30           -8.5695     1.4629    -0.0687 H       
  31 H31           -6.8154     7.7657     0.8948 H       
  32 H32           -8.9730     6.4386     0.5557 H       
@<TRIPOS>BOND
   1    1    2 ar
   2    1   13 1
   3    1    6 ar
   4    2    3 ar
   5    2   23 1
   6    3    4 ar
   7    3   14 1
   8    4    5 ar
   9    4    7 1
  10    5    6 ar
  11    5    9 1
  12    6   24 1
  13    7    8 1
  14    7   10 2
  15    8    9 1
  16    8   11 2
  17   11   12 1
  18   11   25 1
  19   12   15 ar
  20   12   19 ar
  21   13   26 1
  22   14   27 1
  23   15   16 ar
  24   15   28 1
  25   16   17 ar
  26   16   20 1
  27   17   18 ar
  28   17   22 1
  29   18   19 ar
  30   18   29 1
  31   19   30 1
  32   20   21 2
  33   21   22 1
  34   21   31 1
  35   22   32 1

#	End of record

