#	Name: ASD03570037
#	Creating user name:	WinNT
#	Creation time:	15. 06. 2019 20:43

#	Modifying user name:	WinNT
#	Modification time:	15. 06. 2019 20:43

#	Program:	/corina/corina34_cracker 3.40 0067  02.08.2006

@<TRIPOS>MOLECULE
ASD03570037
  60   63    0    0    0
SMALL
NO_CHARGES


@<TRIPOS>ATOM
   1 C1             0.2254     1.0187    -0.3733 C.ar    
   2 C2             2.4882     1.4934     0.5372 C.ar    
   3 C3             3.6500     2.2678     0.5886 C.ar    
   4 C4             3.7845     3.3929    -0.2159 C.ar    
   5 C5             2.7607     3.7576    -1.0815 C.ar    
   6 C6             1.5858     2.9823    -1.1402 C.ar    
   7 C7             1.4570     1.8405    -0.3188 C.ar    
   8 N8             2.6140     4.7941    -1.9749 N.pl3   
   9 C9             1.3796     4.6815    -2.5856 C.2     
  10 C10            0.7377     3.5868    -2.0929 C.2     
  11 C11           -0.6332     3.1059    -2.4935 C.3     
  12 C12           -0.5004     2.0192    -3.5622 C.3     
  13 C13            4.7482     1.8863     1.5095 C.ar    
  14 C14            0.2933    -0.3195    -0.7597 C.ar    
  15 C15           -0.8572    -1.0798    -0.8085 C.ar    
  16 C16           -2.0762    -0.5171    -0.4751 C.ar    
  17 C17           -2.1499     0.8099    -0.0910 C.ar    
  18 C18           -1.0055     1.5788    -0.0327 C.ar    
  19 C19            5.9108     2.6531     1.5674 C.ar    
  20 C20            6.9294     2.2933     2.4261 C.ar    
  21 C21            6.7984     1.1741     3.2285 C.ar    
  22 C22            5.6469     0.4094     3.1753 C.ar    
  23 C23            4.6193     0.7629     2.3245 C.ar    
  24 C24           -1.8713     1.5383    -3.9628 C.2     
  25 O25           -2.8537     2.0158    -3.4465 O.2     
  26 O26           -2.0009     0.5795    -4.8932 O.3     
  27 C27           -3.2984    -0.9268    -6.2995 C.3     
  28 C28           -3.3514     0.1655    -5.2294 C.3     
  29 C29            0.8456     5.5963    -3.6021 C.2     
  30 O30           -0.2578     5.4027    -4.0747 O.2     
  31 O31            1.5789     6.6515    -4.0116 O.3     
  32 C32            1.9597     8.6467    -5.3548 C.3     
  33 C33            0.9878     7.5137    -5.0193 C.3     
  34 H34            2.3962     0.6187     1.1640 H       
  35 H35            4.6864     3.9851    -0.1679 H       
  36 H36            3.2687     5.4888    -2.1471 H       
  37 H37           -1.1441     2.6975    -1.6216 H       
  38 H38           -1.2085     3.9408    -2.8938 H       
  39 H39            0.0106     2.4276    -4.4342 H       
  40 H40            0.0749     1.1844    -3.1620 H       
  41 H41            1.2443    -0.7598    -1.0205 H       
  42 H42           -0.8059    -2.1162    -1.1080 H       
  43 H43           -2.9740    -1.1160    -0.5152 H       
  44 H44           -3.1044     1.2437     0.1682 H       
  45 H45           -1.0643     2.6146     0.2673 H       
  46 H46            6.0143     3.5268     0.9411 H       
  47 H47            7.8308     2.8865     2.4715 H       
  48 H48            7.5982     0.8961     3.8988 H       
  49 H49            5.5501    -0.4635     3.8037 H       
  50 H50            3.7206     0.1654     2.2840 H       
  51 H51           -2.8048    -0.5388    -7.1906 H       
  52 H52           -2.7405    -1.7821    -5.9184 H       
  53 H53           -4.3122    -1.2376    -6.5519 H       
  54 H54           -3.8450    -0.2224    -4.3384 H       
  55 H55           -3.9093     1.0208    -5.6106 H       
  56 H56            2.1656     9.2271    -4.4554 H       
  57 H57            2.8900     8.2263    -5.7367 H       
  58 H58            1.5160     9.2940    -6.1113 H       
  59 H59            0.7820     6.9334    -5.9187 H       
  60 H60            0.0575     7.9342    -4.6374 H       
@<TRIPOS>BOND
   1    1   14 ar
   2    1    7 1
   3    1   18 ar
   4    2    3 ar
   5    2    7 ar
   6    2   34 1
   7    3    4 ar
   8    3   13 1
   9    4    5 ar
  10    4   35 1
  11    5    6 ar
  12    5    8 1
  13    6    7 ar
  14    6   10 1
  15    8    9 1
  16    8   36 1
  17    9   10 2
  18    9   29 1
  19   10   11 1
  20   11   12 1
  21   11   37 1
  22   11   38 1
  23   12   24 1
  24   12   39 1
  25   12   40 1
  26   13   19 ar
  27   13   23 ar
  28   14   15 ar
  29   14   41 1
  30   15   16 ar
  31   15   42 1
  32   16   17 ar
  33   16   43 1
  34   17   18 ar
  35   17   44 1
  36   18   45 1
  37   19   20 ar
  38   19   46 1
  39   20   21 ar
  40   20   47 1
  41   21   22 ar
  42   21   48 1
  43   22   23 ar
  44   22   49 1
  45   23   50 1
  46   24   25 2
  47   24   26 1
  48   26   28 1
  49   27   28 1
  50   27   51 1
  51   27   52 1
  52   27   53 1
  53   28   54 1
  54   28   55 1
  55   29   30 2
  56   29   31 1
  57   31   33 1
  58   32   33 1
  59   32   56 1
  60   32   57 1
  61   32   58 1
  62   33   59 1
  63   33   60 1

#	End of record

