#	Name: ASD01890558
#	Creating user name:	WinNT
#	Creation time:	15. 06. 2019 19:51

#	Modifying user name:	WinNT
#	Modification time:	15. 06. 2019 19:51

#	Program:	/corina/corina34_cracker 3.40 0067  02.08.2006

@<TRIPOS>MOLECULE
ASD01890558
  27   28    0    0    0
SMALL
NO_CHARGES


@<TRIPOS>ATOM
   1 C1            -0.0184     1.5084     0.0103 C.2     
   2 C2             0.0021    -0.0041     0.0020 C.3     
   3 C3            -0.8921    -0.5103     1.1413 C.3     
   4 C4            -2.2769     0.1358     1.0043 C.3     
   5 C5            -2.1019     1.6363     0.9266 C.2     
   6 O6             1.0093     2.1435     0.0039 O.2     
   7 O7            -2.7304     2.3731     1.6490 O.2     
   8 O8            -1.2209     2.1304     0.0195 O.3     
   9 C9            -1.0227    -2.0090     1.0535 C.ar    
  10 C10           -0.6004    -2.8022     2.1043 C.ar    
  11 C11           -0.7195    -4.1767     2.0241 C.ar    
  12 C12           -1.2619    -4.7591     0.8922 C.ar    
  13 C13           -1.6847    -3.9649    -0.1586 C.ar    
  14 C14           -1.5698    -2.5899    -0.0752 C.ar    
  15 C15           -0.2582    -5.0411     3.1691 C.3     
  16 F16            0.2489    -4.2307     4.1905 F       
  17 F17           -1.3384    -5.7847     3.6567 F       
  18 F18            0.7430    -5.9106     2.7231 F       
  19 Cl19          -1.4113    -6.4856     0.7906 Cl      
  20 H20           -0.3778    -0.3701    -0.9518 H       
  21 H21            1.0222    -0.3572     0.1528 H       
  22 H22           -0.4534    -0.2348     2.1003 H       
  23 H23           -2.7604    -0.2239     0.0960 H       
  24 H24           -2.8864    -0.1173     1.8717 H       
  25 H25           -0.1770    -2.3476     2.9877 H       
  26 H26           -2.1078    -4.4189    -1.0425 H       
  27 H27           -1.9039    -1.9695    -0.8937 H       
@<TRIPOS>BOND
   1    1    2 1
   2    1    6 2
   3    1    8 1
   4    2    3 1
   5    2   20 1
   6    2   21 1
   7    3    4 1
   8    3    9 1
   9    3   22 1
  10    4    5 1
  11    4   23 1
  12    4   24 1
  13    5    7 2
  14    5    8 1
  15    9   10 ar
  16    9   14 ar
  17   10   11 ar
  18   10   25 1
  19   11   12 ar
  20   11   15 1
  21   12   13 ar
  22   12   19 1
  23   13   14 ar
  24   13   26 1
  25   14   27 1
  26   15   16 1
  27   15   17 1
  28   15   18 1

#	End of record

