#	Name: ASD01914405
#	Creating user name:	WinNT
#	Creation time:	15. 06. 2019 20:03

#	Modifying user name:	WinNT
#	Modification time:	15. 06. 2019 20:03

#	Program:	/corina/corina34_cracker 3.40 0067  02.08.2006

@<TRIPOS>MOLECULE
ASD01914405
  55   59    0    0    0
SMALL
NO_CHARGES


@<TRIPOS>ATOM
   1 C1            -0.0167     1.3769     0.0096 C.ar    
   2 C2             0.0021    -0.0041     0.0020 C.ar    
   3 C3             1.2140    -0.6809    -0.0132 C.ar    
   4 C4             2.4051     0.0320    -0.0207 C.ar    
   5 C5             2.3825     1.4129    -0.0131 C.ar    
   6 C6             1.1726     2.0864     0.0021 C.ar    
   7 N7             1.2350    -2.0835    -0.0204 N.pl3   
   8 C8             0.5465    -2.9098     0.8263 C.2     
   9 C9             0.8554    -4.1830     0.4664 C.2     
  10 N10            1.7111    -4.1228    -0.5742 N.2     
  11 C11            1.9380    -2.8743    -0.8732 C.2     
  12 C12            0.3429    -5.4199     1.1054 C.ar    
  13 C13            0.7436    -6.6685     0.6336 C.ar    
  14 C14            0.2641    -7.8159     1.2321 C.ar    
  15 C15           -0.6126    -7.7282     2.2985 C.ar    
  16 C16           -1.0141    -6.4915     2.7707 C.ar    
  17 C17           -0.5364    -5.3375     2.1834 C.ar    
  18 C18            2.8393    -2.3875    -1.9784 C.3     
  19 O19            0.8592    -2.5082    -3.2568 O.2     
  20 C20            2.0425    -2.2424    -3.2493 C.2     
  21 N21            2.6449    -1.8174    -4.3775 N.am    
  22 F22            1.1524     3.4372     0.0091 F       
  23 C23           -1.1328    -8.9847     2.9479 C.3     
  24 C24            4.0835    -1.4949    -4.3914 C.3     
  25 C25            1.8855    -1.6691    -5.6282 C.3     
  26 C26            1.8699    -0.1901    -6.0344 C.3     
  27 C27            3.2614     0.3706    -5.8848 C.2     
  28 C28            4.2456    -0.2043    -5.1559 C.2     
  29 N29            3.7591     1.4916    -6.4238 N.2     
  30 C30            5.0016     1.6196    -6.0457 C.2     
  31 O31            5.3285     0.5778    -5.2551 O.3     
  32 C32            5.9239     2.7472    -6.4316 C.3     
  33 H33           -0.9594     1.9038     0.0169 H       
  34 H34           -0.9256    -0.5571     0.0082 H       
  35 H35            3.3489    -0.4929    -0.0321 H       
  36 H36            3.3090     1.9679    -0.0185 H       
  37 H37           -0.1140    -2.6081     1.6257 H       
  38 H38            1.4278    -6.7381    -0.1991 H       
  39 H39            0.5737    -8.7840     0.8671 H       
  40 H40           -1.6991    -6.4289     3.6033 H       
  41 H41           -0.8502    -4.3725     2.5531 H       
  42 H42            3.2629    -1.4217    -1.7030 H       
  43 H43            3.6440    -3.1060    -2.1341 H       
  44 H44           -0.4641    -9.2792     3.7567 H       
  45 H45           -2.1293    -8.8005     3.3493 H       
  46 H46           -1.1812    -9.7831     2.2075 H       
  47 H47            4.4454    -1.3696    -3.3709 H       
  48 H48            4.6375    -2.2920    -4.8873 H       
  49 H49            2.3590    -2.2578    -6.4139 H       
  50 H50            0.8634    -2.0162    -5.4772 H       
  51 H51            1.5495    -0.0998    -7.0723 H       
  52 H52            1.1837     0.3586    -5.3893 H       
  53 H53            5.8406     3.5512    -5.7004 H       
  54 H54            6.9513     2.3838    -6.4566 H       
  55 H55            5.6470     3.1220    -7.4169 H       
@<TRIPOS>BOND
   1    1    2 ar
   2    1    6 ar
   3    1   33 1
   4    2    3 ar
   5    2   34 1
   6    3    4 ar
   7    3    7 1
   8    4    5 ar
   9    4   35 1
  10    5    6 ar
  11    5   36 1
  12    6   22 1
  13    7    8 1
  14    7   11 1
  15    8    9 2
  16    8   37 1
  17    9   10 1
  18    9   12 1
  19   10   11 2
  20   11   18 1
  21   12   13 ar
  22   12   17 ar
  23   13   14 ar
  24   13   38 1
  25   14   15 ar
  26   14   39 1
  27   15   16 ar
  28   15   23 1
  29   16   17 ar
  30   16   40 1
  31   17   41 1
  32   18   20 1
  33   18   42 1
  34   18   43 1
  35   19   20 2
  36   20   21 am
  37   21   25 1
  38   21   24 1
  39   23   44 1
  40   23   45 1
  41   23   46 1
  42   24   28 1
  43   24   47 1
  44   24   48 1
  45   25   26 1
  46   25   49 1
  47   25   50 1
  48   26   27 1
  49   26   51 1
  50   26   52 1
  51   27   28 2
  52   27   29 1
  53   28   31 1
  54   29   30 2
  55   30   31 1
  56   30   32 1
  57   32   53 1
  58   32   54 1
  59   32   55 1

#	End of record

