#	Name: ASD01913070
#	Creating user name:	WinNT
#	Creation time:	15. 06. 2019 20:00

#	Modifying user name:	WinNT
#	Modification time:	15. 06. 2019 20:00

#	Program:	/corina/corina34_cracker 3.40 0067  02.08.2006

@<TRIPOS>MOLECULE
ASD01913070
  29   31    0    0    0
SMALL
NO_CHARGES


@<TRIPOS>ATOM
   1 N1            -0.0169     1.3963     0.0097 N.2     
   2 N2             0.0021    -0.0041     0.0020 N.pl3   
   3 C3             1.2264     1.8294     0.0002 C.2     
   4 C4             2.0819     0.7148    -0.0140 C.2     
   5 C5             1.3049    -0.4066    -0.0126 C.2     
   6 C6             1.7879    -1.8052    -0.0247 C.ar    
   7 C7             1.6516     3.2514     0.0030 C.ar    
   8 C8             1.1498    -2.7746     0.7526 C.ar    
   9 C9             2.8790    -2.1627    -0.8169 C.ar    
  10 C10            3.3245    -3.4684    -0.8244 C.ar    
  11 C11            2.6922    -4.4239    -0.0485 C.ar    
  12 C12            1.6067    -4.0792     0.7356 C.ar    
  13 C13            0.6963     4.2679     0.0173 C.ar    
  14 C14            1.0994     5.5907     0.0198 C.ar    
  15 C15            2.4457     5.9051     0.0077 C.ar    
  16 C16            3.3963     4.9001    -0.0069 C.ar    
  17 C17            3.0063     3.5762    -0.0029 C.ar    
  18 F18           -0.6193     3.9608     0.0282 F       
  19 F19            0.0895    -2.4380     1.5192 F       
  20 H20           -0.7746    -0.5852     0.0066 H       
  21 H21            3.1615     0.7411    -0.0245 H       
  22 H22            3.3739    -1.4188    -1.4236 H       
  23 H23            4.1690    -3.7456    -1.4379 H       
  24 H24            3.0454    -5.4445    -0.0589 H       
  25 H25            1.1177    -4.8295     1.3393 H       
  26 H26            0.3615     6.3792     0.0309 H       
  27 H27            2.7564     6.9394     0.0094 H       
  28 H28            4.4465     5.1521    -0.0167 H       
  29 H29            3.7501     2.7933    -0.0140 H       
@<TRIPOS>BOND
   1    1    2 1
   2    1    3 2
   3    2    5 1
   4    2   20 1
   5    3    4 1
   6    3    7 1
   7    4    5 2
   8    4   21 1
   9    5    6 1
  10    6    8 ar
  11    6    9 ar
  12    7   13 ar
  13    7   17 ar
  14    8   19 1
  15    8   12 ar
  16    9   10 ar
  17    9   22 1
  18   10   11 ar
  19   10   23 1
  20   11   12 ar
  21   11   24 1
  22   12   25 1
  23   13   14 ar
  24   13   18 1
  25   14   15 ar
  26   14   26 1
  27   15   16 ar
  28   15   27 1
  29   16   17 ar
  30   16   28 1
  31   17   29 1

#	End of record

