#	Name: ASD04590459
#	Creating user name:	WinNT
#	Creation time:	15. 06. 2019 20:50

#	Modifying user name:	WinNT
#	Modification time:	15. 06. 2019 20:50

#	Program:	/corina/corina34_cracker 3.40 0067  02.08.2006

@<TRIPOS>MOLECULE
ASD04590459
  49   53    0    0    0
SMALL
NO_CHARGES


@<TRIPOS>ATOM
   1 C1            -0.0169     1.3923     0.0097 C.ar    
   2 C2             0.0021    -0.0041     0.0020 C.ar    
   3 C3            -2.4013    -0.0379     0.0248 C.ar    
   4 C4            -2.4140     1.3672     0.0440 C.ar    
   5 C5            -1.2191     2.0735     0.0306 C.ar    
   6 N6            -3.6929    -0.4513     0.0445 N.2     
   7 C7            -4.4887     0.5899     0.0742 C.2     
   8 N8            -3.7458     1.7406     0.0752 N.pl3   
   9 C9            -5.9648     0.5311     0.1016 C.2     
  10 C10           -6.7501    -0.6449     0.1007 C.2     
  11 C11           -8.0529    -0.2719     0.1306 C.2     
  12 N12           -8.0971     1.0863     0.1497 N.pl3   
  13 N13           -6.7813     1.5659     0.1368 N.2     
  14 N14           -6.2668    -1.9631     0.0730 N.am    
  15 C15           -7.1305    -2.9977     0.0756 C.2     
  16 O16           -8.3284    -2.7897     0.1020 O.2     
  17 C17           -6.6227    -4.3829     0.0466 C.ar    
  18 C18           -1.1778    -0.7174     0.0095 C.ar    
  19 C19           -5.2500    -4.6268     0.0163 C.ar    
  20 O20            1.1915    -0.6643    -0.0133 O.3     
  21 C21            1.1408    -2.0924    -0.0205 C.3     
  22 O22            1.1536     2.0851     0.0022 O.3     
  23 C23            1.0634     3.5113     0.0108 C.3     
  24 C24           -4.7723    -5.9243    -0.0110 C.ar    
  25 C25           -5.6432    -6.9936    -0.0088 C.ar    
  26 C26           -7.0212    -6.7730     0.0213 C.ar    
  27 C27           -7.5157    -5.4615     0.0549 C.ar    
  28 N28           -8.1059    -7.5953     0.0311 N.2     
  29 C29           -9.1814    -6.8677     0.0623 C.2     
  30 O30           -8.8603    -5.5641     0.0784 O.3     
  31 C31          -10.5877    -7.4090     0.0819 C.3     
  32 H32           -1.2289     3.1534     0.0368 H       
  33 H33           -4.0892     2.6476     0.0945 H       
  34 H34           -8.9046    -0.9360     0.1379 H       
  35 H35           -8.9005     1.6293     0.1721 H       
  36 H36           -5.3113    -2.1290     0.0520 H       
  37 H37           -1.1579    -1.7972     0.0031 H       
  38 H38           -4.5568    -3.7987     0.0138 H       
  39 H39            0.6232    -2.4420     0.8728 H       
  40 H40            0.6056    -2.4325    -0.9070 H       
  41 H41            2.1548    -2.4919    -0.0327 H       
  42 H42            0.5192     3.8462    -0.8723 H       
  43 H43            0.5362     3.8366     0.9076 H       
  44 H44            2.0660     3.9388     0.0035 H       
  45 H45           -3.7073    -6.1018    -0.0347 H       
  46 H46           -5.2587    -8.0026    -0.0307 H       
  47 H47          -10.9070    -7.5536     1.1140 H       
  48 H48          -11.2561    -6.7020    -0.4095 H       
  49 H49          -10.6172    -8.3629    -0.4446 H       
@<TRIPOS>BOND
   1    1    2 ar
   2    1   22 1
   3    1    5 ar
   4    2   18 ar
   5    2   20 1
   6    3    4 ar
   7    3    6 1
   8    3   18 ar
   9    4    5 ar
  10    4    8 1
  11    5   32 1
  12    6    7 2
  13    7    8 1
  14    7    9 1
  15    8   33 1
  16    9   10 1
  17    9   13 2
  18   10   11 2
  19   10   14 1
  20   11   12 1
  21   11   34 1
  22   12   13 1
  23   12   35 1
  24   14   15 am
  25   14   36 1
  26   15   16 2
  27   15   17 1
  28   17   19 ar
  29   17   27 ar
  30   18   37 1
  31   19   24 ar
  32   19   38 1
  33   20   21 1
  34   21   39 1
  35   21   40 1
  36   21   41 1
  37   22   23 1
  38   23   42 1
  39   23   43 1
  40   23   44 1
  41   24   25 ar
  42   24   45 1
  43   25   26 ar
  44   25   46 1
  45   26   27 ar
  46   26   28 1
  47   27   30 1
  48   28   29 2
  49   29   30 1
  50   29   31 1
  51   31   47 1
  52   31   48 1
  53   31   49 1

#	End of record

