#	Name: ASD09116155
#	Creating user name:	WinNT
#	Creation time:	15. 06. 2019 21:20

#	Modifying user name:	WinNT
#	Modification time:	15. 06. 2019 21:20

#	Program:	/corina/corina34_cracker 3.40 0067  02.08.2006

@<TRIPOS>MOLECULE
ASD09116155
  73   79    0    0    0
SMALL
NO_CHARGES


@<TRIPOS>ATOM
   1 N1            -0.0266     1.4808     0.1052 N.2     
   2 C2            -0.0140     0.0097     0.1910 C.3     
   3 C3             1.2225     1.8593     0.0812 C.2     
   4 N4             2.0842     0.8235     0.1404 N.2     
   5 C5             1.4646    -0.3259     0.2084 C.2     
   6 N6             1.6191     3.1791     0.0037 N.pl3   
   7 C7             2.9773     3.5091     0.0982 C.ar    
   8 C8             3.4711     4.6162    -0.5781 C.ar    
   9 C9             3.8284     2.7317     0.8732 C.ar    
  10 C10            5.1682     3.0575     0.9663 C.ar    
  11 C11            5.6632     4.1637     0.2837 C.ar    
  12 C12            4.8106     4.9422    -0.4859 C.ar    
  13 N13            2.0277    -1.5620     0.2792 N.pl3   
  14 C14           -0.6794    -0.4545     1.4610 C.ar    
  15 C15           -1.3065     0.4667     2.2723 C.ar    
  16 N16           -0.6558    -1.7383     1.7743 N.ar    
  17 C17           -1.2209    -2.1952     2.8704 C.ar    
  18 C18           -1.8668    -1.3359     3.7436 C.ar    
  19 C19           -1.9227     0.0241     3.4531 C.ar    
  20 C20           -1.3358    -3.6061     3.4543 C.3     
  21 C21           -2.8469    -3.9663     3.2954 C.3     
  22 C22           -3.5669    -3.0042     4.2706 C.3     
  23 C23           -2.4073    -2.1710     4.9035 C.3     
  24 C24           -1.2864    -3.2716     4.9905 C.3     
  25 C25           -2.6026     0.9710     4.3603 C.2     
  26 N26            7.0212     4.4951     0.3778 N.3     
  27 C27            7.6617     4.4705    -0.9435 C.3     
  28 C28            9.1676     4.6931    -0.7861 C.3     
  29 C29            9.4107     6.0429    -0.1054 C.3     
  30 C30            8.6931     6.0602     1.2471 C.3     
  31 C31            7.2009     5.7980     1.0308 C.3     
  32 F32            5.9966     2.3022     1.7203 F       
  33 N33           10.8522     6.2359     0.1012 N.3     
  34 C34           11.1320     7.5718     0.6445 C.3     
  35 C35           -2.0746     2.1232     4.8215 C.2     
  36 C36           -2.9020     2.8423     5.6574 C.2     
  37 C37           -4.0983     2.2897     5.8830 C.2     
  38 S38           -4.2290     0.7742     5.0004 S.3     
  39 C39           11.4045     5.1881     0.9701 C.3     
  40 H40           -0.5005    -0.4304    -0.6795 H       
  41 H41            0.9574     3.8781    -0.1163 H       
  42 H42            2.8080     5.2228    -1.1770 H       
  43 H43            3.4431     1.8732     1.4032 H       
  44 H44            5.1948     5.8012    -1.0159 H       
  45 H45            2.9932    -1.6557     0.2826 H       
  46 H46            1.4639    -2.3499     0.3264 H       
  47 H47           -1.3231     1.5127     2.0037 H       
  48 H48           -0.6235    -4.3417     3.0806 H       
  49 H49           -3.1762    -3.7893     2.2715 H       
  50 H50           -3.0246    -5.0032     3.5810 H       
  51 H51           -4.2533    -2.3537     3.7286 H       
  52 H52           -4.0977    -3.5658     5.0394 H       
  53 H53           -2.6470    -1.6284     5.8180 H       
  54 H54           -1.5835    -4.1184     5.6093 H       
  55 H55           -0.3239    -2.8605     5.2949 H       
  56 H56            7.4847     3.5038    -1.4149 H       
  57 H57            7.2409     5.2603    -1.5657 H       
  58 H58            9.5913     3.8959    -0.1753 H       
  59 H59            9.6404     4.6903    -1.7681 H       
  60 H60            9.0215     6.8434    -0.7345 H       
  61 H61            9.1094     5.2846     1.8899 H       
  62 H62            8.8270     7.0342     1.7177 H       
  63 H63            6.7823     6.5816     0.3993 H       
  64 H64            6.6894     5.7955     1.9933 H       
  65 H65           10.6230     7.6889     1.6012 H       
  66 H66           12.2062     7.6881     0.7878 H       
  67 H67           10.7742     8.3297    -0.0525 H       
  68 H68           -1.0818     2.4560     4.5571 H       
  69 H69           -2.6055     3.7827     6.0979 H       
  70 H70           -4.8696     2.7122     6.5099 H       
  71 H71           11.2449     4.2130     0.5099 H       
  72 H72           12.4730     5.3549     1.1065 H       
  73 H73           10.9054     5.2188     1.9386 H       
@<TRIPOS>BOND
   1    1    2 1
   2    1    3 2
   3    2   14 1
   4    2    5 1
   5    2   40 1
   6    3    4 1
   7    3    6 1
   8    4    5 2
   9    5   13 1
  10    6    7 1
  11    6   41 1
  12    7    8 ar
  13    7    9 ar
  14    8   12 ar
  15    8   42 1
  16    9   10 ar
  17    9   43 1
  18   10   11 ar
  19   10   32 1
  20   11   12 ar
  21   11   26 1
  22   12   44 1
  23   13   45 1
  24   13   46 1
  25   14   15 ar
  26   14   16 ar
  27   15   19 ar
  28   15   47 1
  29   16   17 ar
  30   17   18 ar
  31   17   20 1
  32   18   19 ar
  33   18   23 1
  34   19   25 1
  35   20   21 1
  36   20   24 1
  37   20   48 1
  38   21   22 1
  39   21   49 1
  40   21   50 1
  41   22   23 1
  42   22   51 1
  43   22   52 1
  44   23   24 1
  45   23   53 1
  46   24   54 1
  47   24   55 1
  48   25   35 2
  49   25   38 1
  50   26   27 1
  51   26   31 1
  52   27   28 1
  53   27   56 1
  54   27   57 1
  55   28   29 1
  56   28   58 1
  57   28   59 1
  58   29   30 1
  59   29   33 1
  60   29   60 1
  61   30   31 1
  62   30   61 1
  63   30   62 1
  64   31   63 1
  65   31   64 1
  66   33   34 1
  67   33   39 1
  68   34   65 1
  69   34   66 1
  70   34   67 1
  71   35   36 1
  72   35   68 1
  73   36   37 2
  74   36   69 1
  75   37   38 1
  76   37   70 1
  77   39   71 1
  78   39   72 1
  79   39   73 1

#	End of record

