#	Name: ASD01811197
#	Creating user name:	WinNT
#	Creation time:	15. 06. 2019 19:26

#	Modifying user name:	WinNT
#	Modification time:	15. 06. 2019 19:26

#	Program:	/corina/corina34_cracker 3.40 0067  02.08.2006

@<TRIPOS>MOLECULE
ASD01811197
  59   64    0    0    0
SMALL
NO_CHARGES


@<TRIPOS>ATOM
   1 C1            -0.0168     1.3879     0.0097 C.ar    
   2 C2             0.0021    -0.0041     0.0020 C.ar    
   3 N3            -1.3016    -0.5047     0.0107 N.am    
   4 C4            -2.2230     0.4777     0.0248 C.2     
   5 C5            -1.4674     1.7787     0.0317 C.3     
   6 C6            -1.8131     2.6229     1.2611 C.3     
   7 N7            -2.3153     3.9226     0.7574 N.3     
   8 C8            -2.8450     3.6530    -0.6048 C.3     
   9 C9            -1.8280     2.6381    -1.1902 C.3     
  10 C10           -3.3658     4.4568     1.6345 C.3     
  11 C11           -3.6826     5.8983     1.2314 C.3     
  12 C12           -4.8379     6.5958     1.9523 C.3     
  13 C13           -3.3931     6.9980     2.2550 C.3     
  14 C14            1.1581     2.1052     0.0023 C.ar    
  15 C15            2.3736     1.4435    -0.0123 C.ar    
  16 C16            2.4045     0.0613    -0.0192 C.ar    
  17 C17            1.2294    -0.6618    -0.0115 C.ar    
  18 O18           -3.4280     0.3402     0.0340 O.2     
  19 C19           -1.6291    -1.9326     0.0046 C.3     
  20 C20           -1.7291    -2.4311     1.4233 C.ar    
  21 C21           -2.8834    -2.2039     2.1554 C.ar    
  22 C22           -2.9787    -2.6591     3.4571 C.ar    
  23 C23           -1.9122    -3.3470     4.0309 C.ar    
  24 C24           -0.7549    -3.5725     3.2894 C.ar    
  25 C25           -0.6710    -3.1185     1.9883 C.ar    
  26 F26           -3.9165    -1.5363     1.5965 F       
  27 C27           -2.0085    -3.8381     5.4289 C.2     
  28 C28           -1.0452    -4.5220     6.1113 C.2     
  29 N29           -1.5248    -4.7807     7.3445 N.pl3   
  30 N30           -2.8159    -4.2461     7.4329 N.2     
  31 C31           -3.1086    -3.6771     6.2936 C.2     
  32 C32           -0.8174    -5.4978     8.4083 C.3     
  33 H33           -2.5855     2.1270     1.8489 H       
  34 H34           -0.9223     2.7778     1.8698 H       
  35 H35           -3.8401     3.2116    -0.5497 H       
  36 H36           -2.8612     4.5668    -1.1987 H       
  37 H37           -0.9470     3.1520    -1.5748 H       
  38 H38           -2.2920     2.0302    -1.9669 H       
  39 H39           -4.2641     3.8469     1.5386 H       
  40 H40           -3.0211     4.4360     2.6684 H       
  41 H41           -3.5289     6.1368     0.1790 H       
  42 H42           -5.4439     7.2934     1.3743 H       
  43 H43           -5.3722     6.0277     2.7138 H       
  44 H44           -2.9768     6.6945     3.2156 H       
  45 H45           -3.0486     7.9602     1.8761 H       
  46 H46            1.1314     3.1849     0.0076 H       
  47 H47            3.2958     2.0055    -0.0187 H       
  48 H48            3.3530    -0.4550    -0.0306 H       
  49 H49            1.2616    -1.7413    -0.0169 H       
  50 H50           -2.5822    -2.0847    -0.5019 H       
  51 H51           -0.8473    -2.4824    -0.5194 H       
  52 H52           -3.8781    -2.4815     4.0280 H       
  53 H53            0.0746    -4.1052     3.7306 H       
  54 H54            0.2263    -3.2937     1.4133 H       
  55 H55           -0.0744    -4.8053     5.7322 H       
  56 H56           -4.0350    -3.1763     6.0545 H       
  57 H57           -0.2507    -4.7877     9.0105 H       
  58 H58           -1.5394    -6.0151     9.0401 H       
  59 H59           -0.1358    -6.2241     7.9657 H       
@<TRIPOS>BOND
   1    1    2 ar
   2    1   14 ar
   3    1    5 1
   4    2    3 1
   5    2   17 ar
   6    3    4 am
   7    3   19 1
   8    4    5 1
   9    4   18 2
  10    5    6 1
  11    5    9 1
  12    6    7 1
  13    6   33 1
  14    6   34 1
  15    7    8 1
  16    7   10 1
  17    8    9 1
  18    8   35 1
  19    8   36 1
  20    9   37 1
  21    9   38 1
  22   10   11 1
  23   10   39 1
  24   10   40 1
  25   11   12 1
  26   11   13 1
  27   11   41 1
  28   12   13 1
  29   12   42 1
  30   12   43 1
  31   13   44 1
  32   13   45 1
  33   14   15 ar
  34   14   46 1
  35   15   16 ar
  36   15   47 1
  37   16   17 ar
  38   16   48 1
  39   17   49 1
  40   19   20 1
  41   19   50 1
  42   19   51 1
  43   20   21 ar
  44   20   25 ar
  45   21   22 ar
  46   21   26 1
  47   22   23 ar
  48   22   52 1
  49   23   24 ar
  50   23   27 1
  51   24   25 ar
  52   24   53 1
  53   25   54 1
  54   27   28 2
  55   27   31 1
  56   28   29 1
  57   28   55 1
  58   29   30 1
  59   29   32 1
  60   30   31 2
  61   31   56 1
  62   32   57 1
  63   32   58 1
  64   32   59 1

#	End of record

