#	Name: ASD03082286
#	Creating user name:	WinNT
#	Creation time:	15. 06. 2019 20:27

#	Modifying user name:	WinNT
#	Modification time:	15. 06. 2019 20:27

#	Program:	/corina/corina34_cracker 3.40 0067  02.08.2006

@<TRIPOS>MOLECULE
ASD03082286
  39   41    0    0    0
SMALL
NO_CHARGES


@<TRIPOS>ATOM
   1 N1             0.0681     1.5548    -0.3291 N.pl3   
   2 N2             0.1101     0.1516    -0.3663 N.2     
   3 C3             1.2672    -0.2100     0.1394 C.2     
   4 N4             1.9489     0.8814     0.4894 N.2     
   5 C5             1.2390     1.9568     0.2133 C.2     
   6 N6             1.7114    -1.5254     0.2874 N.pl3   
   7 C7             3.0137    -1.7780     0.7304 C.ar    
   8 C8             3.3094    -2.9723     1.3744 C.ar    
   9 C9             4.5981    -3.2210     1.8117 C.ar    
  10 C10            5.5939    -2.2786     1.6077 C.ar    
  11 C11            5.3002    -1.0860     0.9650 C.ar    
  12 C12            4.0136    -0.8371     0.5216 C.ar    
  13 C13            1.6513     3.3577     0.4545 C.ar    
  14 C14           -1.0253     2.4129    -0.7923 C.3     
  15 C15            3.0016     3.7236     0.4325 C.ar    
  16 C16            3.3422     5.0407     0.6620 C.ar    
  17 N17            2.4154     5.9489     0.8996 N.ar    
  18 C18            1.1306     5.6469     0.9294 C.ar    
  19 C19            0.7013     4.3532     0.7049 C.ar    
  20 O20           -1.5526     1.8943    -2.0150 O.3     
  21 F21            6.8518    -2.5223     2.0360 F       
  22 C22           -2.1300     2.4470     0.2657 C.3     
  23 C23            4.7931     5.4474     0.6415 C.3     
  24 Cl24          -0.0352     6.8931     1.2482 Cl      
  25 F25            6.2719    -0.1686     0.7670 F       
  26 F26            4.8861    -4.3828     2.4383 F       
  27 H27            1.1169    -2.2640     0.0829 H       
  28 H28            2.5336    -3.7064     1.5342 H       
  29 H29            3.7859     0.0904     0.0173 H       
  30 H30           -0.6495     3.4226    -0.9579 H       
  31 H31            3.7660     2.9857     0.2390 H       
  32 H32           -0.3512     4.1127     0.7303 H       
  33 H33           -1.9055     0.9969    -1.9419 H       
  34 H34           -1.7278     2.8426     1.1983 H       
  35 H35           -2.9435     3.0855    -0.0789 H       
  36 H36           -2.5058     1.4373     0.4313 H       
  37 H37            5.0746     5.7386    -0.3705 H       
  38 H38            4.9441     6.2893     1.3171 H       
  39 H39            5.4102     4.6084     0.9630 H       
@<TRIPOS>BOND
   1    1    2 1
   2    1    5 1
   3    1   14 1
   4    2    3 2
   5    3    4 1
   6    3    6 1
   7    4    5 2
   8    5   13 1
   9    6    7 1
  10    6   27 1
  11    7    8 ar
  12    7   12 ar
  13    8    9 ar
  14    8   28 1
  15    9   10 ar
  16    9   26 1
  17   10   11 ar
  18   10   21 1
  19   11   12 ar
  20   11   25 1
  21   12   29 1
  22   13   15 ar
  23   13   19 ar
  24   14   20 1
  25   14   22 1
  26   14   30 1
  27   15   16 ar
  28   15   31 1
  29   16   17 ar
  30   16   23 1
  31   17   18 ar
  32   18   19 ar
  33   18   24 1
  34   19   32 1
  35   20   33 1
  36   22   34 1
  37   22   35 1
  38   22   36 1
  39   23   37 1
  40   23   38 1
  41   23   39 1

#	End of record

