#	Name: ASD03092287
#	Creating user name:	WinNT
#	Creation time:	15. 06. 2019 20:32

#	Modifying user name:	WinNT
#	Modification time:	15. 06. 2019 20:32

#	Program:	/corina/corina34_cracker 3.40 0067  02.08.2006

@<TRIPOS>MOLECULE
ASD03092287
  57   60    0    0    0
SMALL
NO_CHARGES


@<TRIPOS>ATOM
   1 C1            -0.0167     1.3781     0.0096 C.ar    
   2 C2             0.0021    -0.0041     0.0020 C.ar    
   3 C3             1.2084    -0.6789    -0.0132 C.ar    
   4 C4             2.3960     0.0285    -0.0212 C.ar    
   5 C5             2.3773     1.4107    -0.0145 C.ar    
   6 C6             1.1710     2.0855     0.0021 C.ar    
   7 C7             3.6720     2.1819    -0.0228 C.3     
   8 N8             4.0799     2.4390    -1.4104 N.3     
   9 C9             5.2020     3.3849    -1.4624 C.3     
  10 C10            2.9460     2.9157    -2.2126 C.3     
  11 C11            3.3701     3.0334    -3.6783 C.3     
  12 C12            4.5437     4.0107    -3.7881 C.3     
  13 C13            5.6934     3.5167    -2.9057 C.3     
  14 C14            5.0117     4.0864    -5.2428 C.3     
  15 C15            6.0999     5.1539    -5.3736 C.3     
  16 C16            6.6705     5.1598    -6.7984 C.3     
  17 C17            6.3885     6.5325    -7.3613 C.ar    
  18 C18            5.7200     7.3009    -6.4063 C.ar    
  19 C19            5.5104     6.5288    -5.1737 C.2     
  20 O20            4.9588     6.9274    -4.1696 O.2     
  21 C21            6.6854     7.0709    -8.5972 C.ar    
  22 C22            6.3230     8.3759    -8.8991 C.ar    
  23 C23            5.6547     9.1520    -7.9517 C.ar    
  24 C24            5.3545     8.6230    -6.7152 C.ar    
  25 O25            5.3003    10.4311    -8.2483 O.3     
  26 O26            6.6193     8.8977   -10.1167 O.3     
  27 C27            7.3051     8.0471   -11.0377 C.3     
  28 C28            4.6186    11.1678    -7.2312 C.3     
  29 H29           -0.9592     1.9054     0.0170 H       
  30 H30           -0.9258    -0.5567     0.0083 H       
  31 H31            1.2231    -1.7588    -0.0184 H       
  32 H32            3.3386    -0.4987    -0.0324 H       
  33 H33            1.1563     3.1654     0.0069 H       
  34 H34            3.5335     3.1300     0.4968 H       
  35 H35            4.4443     1.6008     0.4812 H       
  36 H36            4.8729     4.3590    -1.1004 H       
  37 H37            6.0143     3.0197    -0.8341 H       
  38 H38            2.1199     2.2096    -2.1291 H       
  39 H39            2.6275     3.8919    -1.8471 H       
  40 H40            3.6757     2.0548    -4.0485 H       
  41 H41            2.5328     3.4021    -4.2709 H       
  42 H42            4.2272     4.9990    -3.4544 H       
  43 H43            6.5160     4.2306    -2.9463 H       
  44 H44            6.0355     2.5456    -3.2637 H       
  45 H45            5.4130     3.1194    -5.5461 H       
  46 H46            4.1686     4.3468    -5.8826 H       
  47 H47            6.8943     4.9732    -4.6494 H       
  48 H48            7.7452     4.9793    -6.7722 H       
  49 H49            6.1770     4.3985    -7.4026 H       
  50 H50            7.2029     6.4733    -9.3330 H       
  51 H51            4.8366     9.2244    -5.9828 H       
  52 H52            8.2601     7.7428   -10.6093 H       
  53 H53            6.6985     7.1638   -11.2374 H       
  54 H54            7.4799     8.5859   -11.9690 H       
  55 H55            3.6897    10.6586    -6.9745 H       
  56 H56            5.2516    11.2370    -6.3466 H       
  57 H57            4.3945    12.1699    -7.5969 H       
@<TRIPOS>BOND
   1    1    2 ar
   2    1    6 ar
   3    1   29 1
   4    2    3 ar
   5    2   30 1
   6    3    4 ar
   7    3   31 1
   8    4    5 ar
   9    4   32 1
  10    5    6 ar
  11    5    7 1
  12    6   33 1
  13    7    8 1
  14    7   34 1
  15    7   35 1
  16    8    9 1
  17    8   10 1
  18    9   13 1
  19    9   36 1
  20    9   37 1
  21   10   11 1
  22   10   38 1
  23   10   39 1
  24   11   12 1
  25   11   40 1
  26   11   41 1
  27   12   13 1
  28   12   14 1
  29   12   42 1
  30   13   43 1
  31   13   44 1
  32   14   15 1
  33   14   45 1
  34   14   46 1
  35   15   16 1
  36   15   19 1
  37   15   47 1
  38   16   17 1
  39   16   48 1
  40   16   49 1
  41   17   18 ar
  42   17   21 ar
  43   18   19 1
  44   18   24 ar
  45   19   20 2
  46   21   22 ar
  47   21   50 1
  48   22   23 ar
  49   22   26 1
  50   23   24 ar
  51   23   25 1
  52   24   51 1
  53   25   28 1
  54   26   27 1
  55   27   52 1
  56   27   53 1
  57   27   54 1
  58   28   55 1
  59   28   56 1
  60   28   57 1

#	End of record

