#	Name: ASD01920038
#	Creating user name:	WinNT
#	Creation time:	15. 06. 2019 20:11

#	Modifying user name:	WinNT
#	Modification time:	15. 06. 2019 20:11

#	Program:	/corina/corina34_cracker 3.40 0067  02.08.2006

@<TRIPOS>MOLECULE
ASD01920038
  52   54    0    0    0
SMALL
NO_CHARGES


@<TRIPOS>ATOM
   1 N1            -0.1167     1.4219    -0.8657 N.pl3   
   2 C2            -0.1056     0.0624    -0.9867 C.2     
   3 C3            -1.3509    -0.4070    -0.8021 C.2     
   4 C4            -2.2004     0.7637    -0.5457 C.2     
   5 C5            -1.3595     1.8595    -0.5962 C.2     
   6 C6             1.1099    -0.7783    -1.2811 C.3     
   7 C7            -1.7664     3.2963    -0.3938 C.3     
   8 C8             1.0607     2.2827    -1.0037 C.3     
   9 C9            -3.6414     0.7683    -0.2841 C.2     
  10 O10           -4.2191     1.8172    -0.0880 O.2     
  11 C11           -4.4067    -0.5297    -0.2585 C.3     
  12 S12           -6.1554    -0.1939     0.0877 S.3     
  13 C13           -6.8771    -1.8013     0.0784 C.ar    
  14 C14           -8.2384    -1.9532     0.3118 C.ar    
  15 C15           -8.8033    -3.2127     0.3045 C.ar    
  16 C16           -8.0113    -4.3278     0.0643 C.ar    
  17 C17           -6.6508    -4.1764    -0.1690 C.ar    
  18 C18           -6.0861    -2.9168    -0.1680 C.ar    
  19 N19           -8.5851    -5.6064     0.0579 N.am    
  20 C20           -9.8313    -5.7833    -0.4240 C.2     
  21 O21          -10.4881    -4.8254    -0.7735 O.2     
  22 C22          -10.4088    -7.1714    -0.5284 C.3     
  23 C23            1.2139     2.7067    -2.4658 C.3     
  24 C24            2.4250     3.5922    -2.6078 C.2     
  25 C25            3.6619     3.1671    -2.8697 C.2     
  26 C26            4.6161     4.1662    -2.9555 C.2     
  27 C27            4.1541     5.4027    -2.7634 C.2     
  28 S28            2.4224     5.3449    -2.4610 S.3     
  29 H29           -1.6650    -1.4397    -0.8360 H       
  30 H30            1.5860    -1.0692    -0.3447 H       
  31 H31            0.8099    -1.6716    -1.8290 H       
  32 H32            1.8132    -0.2023    -1.8826 H       
  33 H33           -1.6857     3.5515     0.6628 H       
  34 H34           -1.1112     3.9449    -0.9753 H       
  35 H35           -2.7968     3.4319    -0.7226 H       
  36 H36            0.9387     3.1680    -0.3796 H       
  37 H37            1.9495     1.7359    -0.6890 H       
  38 H38           -4.3162    -1.0240    -1.2258 H       
  39 H39           -3.9999    -1.1760     0.5192 H       
  40 H40           -8.8543    -1.0861     0.4994 H       
  41 H41           -9.8614    -3.3309     0.4860 H       
  42 H42           -6.0351    -5.0440    -0.3554 H       
  43 H43           -5.0280    -2.7991    -0.3499 H       
  44 H44           -8.0854    -6.3640     0.4003 H       
  45 H45          -10.4421    -7.6265     0.4615 H       
  46 H46          -11.4179    -7.1153    -0.9367 H       
  47 H47           -9.7840    -7.7763    -1.1856 H       
  48 H48            1.3359     1.8215    -3.0900 H       
  49 H49            0.3251     3.2536    -2.7806 H       
  50 H50            3.9009     2.1225    -3.0042 H       
  51 H51            5.6560     3.9602    -3.1621 H       
  52 H52            4.7514     6.3021    -2.7926 H       
@<TRIPOS>BOND
   1    1    2 1
   2    1    8 1
   3    1    5 1
   4    2    3 2
   5    2    6 1
   6    3    4 1
   7    3   29 1
   8    4    5 2
   9    4    9 1
  10    5    7 1
  11    6   30 1
  12    6   31 1
  13    6   32 1
  14    7   33 1
  15    7   34 1
  16    7   35 1
  17    8   23 1
  18    8   36 1
  19    8   37 1
  20    9   10 2
  21    9   11 1
  22   11   12 1
  23   11   38 1
  24   11   39 1
  25   12   13 1
  26   13   14 ar
  27   13   18 ar
  28   14   15 ar
  29   14   40 1
  30   15   16 ar
  31   15   41 1
  32   16   17 ar
  33   16   19 1
  34   17   18 ar
  35   17   42 1
  36   18   43 1
  37   19   20 am
  38   19   44 1
  39   20   21 2
  40   20   22 1
  41   22   45 1
  42   22   46 1
  43   22   47 1
  44   23   24 1
  45   23   48 1
  46   23   49 1
  47   24   25 2
  48   24   28 1
  49   25   26 1
  50   25   50 1
  51   26   27 2
  52   26   51 1
  53   27   28 1
  54   27   52 1

#	End of record

