#	Name: ASD03740107
#	Creating user name:	WinNT
#	Creation time:	15. 06. 2019 20:46

#	Modifying user name:	WinNT
#	Modification time:	15. 06. 2019 20:46

#	Program:	/corina/corina34_cracker 3.40 0067  02.08.2006

@<TRIPOS>MOLECULE
ASD03740107
  53   54    0    0    0
SMALL
NO_CHARGES


@<TRIPOS>ATOM
   1 C1            -0.0180     1.4733     0.0101 C.2     
   2 C2             0.0021    -0.0041     0.0020 C.2     
   3 C3            -1.0258    -0.6874    -0.5423 C.2     
   4 C4            -2.1241     0.1620    -1.0843 C.3     
   5 C5            -2.3968     1.2416     0.0135 C.3     
   6 C6            -1.1996     2.1257     0.0306 C.2     
   7 N7            -3.4804    -0.3731    -1.1701 N.pl3   
   8 N8            -4.2951     0.7911    -1.1089 N.2     
   9 C9            -3.7165     1.7631    -0.4510 C.2     
  10 O10           -4.2189     3.0041    -0.2327 O.3     
  11 C11           -3.9004    -1.7714    -1.2902 C.3     
  12 C12           -4.0916    -2.3584     0.0846 C.ar    
  13 C13           -5.3255    -2.2823     0.7031 C.ar    
  14 C14           -5.5008    -2.8206     1.9642 C.ar    
  15 C15           -4.4424    -3.4354     2.6066 C.ar    
  16 C16           -3.2087    -3.5123     1.9877 C.ar    
  17 C17           -3.0345    -2.9778     0.7248 C.ar    
  18 C18           -5.5111     3.2854    -0.7740 C.3     
  19 C19           -5.9072     4.7222    -0.4282 C.3     
  20 C20           -7.2907     5.0234    -1.0078 C.3     
  21 N21           -7.6710     6.4030    -0.6758 N.3     
  22 C22           -6.7921     7.3680    -1.3497 C.3     
  23 C23           -9.0802     6.6545    -1.0057 C.3     
  24 C24            1.2746     2.2481     0.0020 C.3     
  25 H25            0.8385    -0.5360     0.4308 H       
  26 H26           -1.0508    -1.7663    -0.5825 H       
  27 H27           -1.8238     0.6266    -2.0235 H       
  28 H28           -2.5096     0.7602     0.9849 H       
  29 H29           -1.2705     3.2031     0.0516 H       
  30 H30           -4.8396    -1.8227    -1.8410 H       
  31 H31           -3.1354    -2.3361    -1.8231 H       
  32 H32           -6.1524    -1.8019     0.2013 H       
  33 H33           -6.4646    -2.7606     2.4478 H       
  34 H34           -4.5792    -3.8554     3.5921 H       
  35 H35           -2.3817    -3.9923     2.4896 H       
  36 H36           -2.0707    -3.0379     0.2412 H       
  37 H37           -5.4850     3.1664    -1.8572 H       
  38 H38           -6.2407     2.5954    -0.3502 H       
  39 H39           -5.9332     4.8412     0.6550 H       
  40 H40           -5.1776     5.4123    -0.8521 H       
  41 H41           -7.2647     4.9044    -2.0910 H       
  42 H42           -8.0203     4.3334    -0.5839 H       
  43 H43           -6.8665     7.2351    -2.4290 H       
  44 H44           -7.0957     8.3813    -1.0866 H       
  45 H45           -5.7620     7.2037    -1.0335 H       
  46 H46           -9.7135     5.9715    -0.4396 H       
  47 H47           -9.3353     7.6829    -0.7499 H       
  48 H48           -9.2375     6.4958    -2.0726 H       
  49 H49            2.1145     1.5534    -0.0098 H       
  50 H50            1.3136     2.8804    -0.8850 H       
  51 H51            1.3306     2.8708     0.8948 H       
  52 Cl52           7.1145    13.3813     8.5921 Cl      
  53 H53            7.1145    14.7513     8.5921 H       
@<TRIPOS>BOND
   1    1    2 1
   2    1   24 1
   3    1    6 2
   4    2    3 2
   5    2   25 1
   6    3    4 1
   7    3   26 1
   8    4    5 1
   9    4    7 1
  10    4   27 1
  11    5    6 1
  12    5    9 1
  13    5   28 1
  14    6   29 1
  15    7    8 1
  16    7   11 1
  17    8    9 2
  18    9   10 1
  19   10   18 1
  20   11   12 1
  21   11   30 1
  22   11   31 1
  23   12   13 ar
  24   12   17 ar
  25   13   14 ar
  26   13   32 1
  27   14   15 ar
  28   14   33 1
  29   15   16 ar
  30   15   34 1
  31   16   17 ar
  32   16   35 1
  33   17   36 1
  34   18   19 1
  35   18   37 1
  36   18   38 1
  37   19   20 1
  38   19   39 1
  39   19   40 1
  40   20   21 1
  41   20   41 1
  42   20   42 1
  43   21   22 1
  44   21   23 1
  45   22   43 1
  46   22   44 1
  47   22   45 1
  48   23   46 1
  49   23   47 1
  50   23   48 1
  51   24   49 1
  52   24   50 1
  53   24   51 1
  54   52   53 1

#	End of record

