#	Name: ASD03090285
#	Creating user name:	WinNT
#	Creation time:	15. 06. 2019 20:28

#	Modifying user name:	WinNT
#	Modification time:	15. 06. 2019 20:28

#	Program:	/corina/corina34_cracker 3.40 0067  02.08.2006

@<TRIPOS>MOLECULE
ASD03090285
  46   49    0    0    0
SMALL
NO_CHARGES


@<TRIPOS>ATOM
   1 N1             0.4494     1.5145     1.4707 N.ar    
   2 C2             0.4112     0.1963     1.4366 C.ar    
   3 C3             1.5376    -0.5372     1.1248 C.ar    
   4 C4             2.7302     0.1378     0.8431 C.ar    
   5 C5             2.7246     1.5359     0.8910 C.ar    
   6 C6             1.5526     2.1897     1.2117 C.ar    
   7 C7             3.9637    -0.6067     0.5042 C.2     
   8 N8             5.7413    -3.4557    -0.5337 N.pl3   
   9 C9             4.8142    -4.4452    -0.8770 C.ar    
  10 C10            3.5971    -4.0910    -1.4442 C.ar    
  11 C11            2.6830    -5.0699    -1.7824 C.ar    
  12 C12            2.9793    -6.4032    -1.5559 C.ar    
  13 C13            4.1925    -6.7587    -0.9904 C.ar    
  14 C14            5.1119    -5.7840    -0.6564 C.ar    
  15 N15            4.0275    -1.8627     0.1103 N.2     
  16 C16            5.2987    -2.2020    -0.1075 C.2     
  17 N17            6.0673    -1.1670     0.1441 N.2     
  18 N18            5.2228    -0.1166     0.5385 N.pl3   
  19 C19            5.6271     1.2391     0.9192 C.3     
  20 F20            2.0834    -7.3588    -1.8867 F       
  21 C21            5.7316     2.1109    -0.3337 C.3     
  22 C22            6.1474     3.5055     0.0579 C.2     
  23 N23            7.3661     3.9465     0.1529 N.2     
  24 O24            7.3658     5.1121     0.4887 O.3     
  25 C25            6.1087     5.5382     0.6446 C.2     
  26 N26            5.3253     4.5238     0.3677 N.2     
  27 C27            5.6745     6.9218     1.0547 C.3     
  28 C28            4.5119    -8.2109    -0.7447 C.3     
  29 F29            5.7833    -8.3181    -0.1710 F       
  30 F30            3.5608    -8.7570     0.1238 F       
  31 F31            4.4881    -8.9055    -1.9588 F       
  32 H32           -0.5140    -0.3157     1.6559 H       
  33 H33            1.4992    -1.6162     1.0991 H       
  34 H34            3.6243     2.0952     0.6805 H       
  35 H35            1.5382     3.2689     1.2509 H       
  36 H36            6.6918    -3.6406    -0.5916 H       
  37 H37            3.3652    -3.0510    -1.6203 H       
  38 H38            1.7363    -4.7949    -2.2235 H       
  39 H39            6.0580    -6.0617    -0.2158 H       
  40 H40            4.8851     1.6629     1.5959 H       
  41 H41            6.5954     1.2028     1.4184 H       
  42 H42            6.4736     1.6871    -1.0105 H       
  43 H43            4.7633     2.1472    -0.8329 H       
  44 H44            6.5535     7.5470     1.2112 H       
  45 H45            5.0550     7.3558     0.2698 H       
  46 H46            5.1008     6.8633     1.9796 H       
@<TRIPOS>BOND
   1    1    2 ar
   2    1    6 ar
   3    2    3 ar
   4    2   32 1
   5    3    4 ar
   6    3   33 1
   7    4    5 ar
   8    4    7 1
   9    5    6 ar
  10    5   34 1
  11    6   35 1
  12    7   15 2
  13    7   18 1
  14    8    9 1
  15    8   16 1
  16    8   36 1
  17    9   10 ar
  18    9   14 ar
  19   10   11 ar
  20   10   37 1
  21   11   12 ar
  22   11   38 1
  23   12   13 ar
  24   12   20 1
  25   13   14 ar
  26   13   28 1
  27   14   39 1
  28   15   16 1
  29   16   17 2
  30   17   18 1
  31   18   19 1
  32   19   21 1
  33   19   40 1
  34   19   41 1
  35   21   22 1
  36   21   42 1
  37   21   43 1
  38   22   23 2
  39   22   26 1
  40   23   24 1
  41   24   25 1
  42   25   26 2
  43   25   27 1
  44   27   44 1
  45   27   45 1
  46   27   46 1
  47   28   29 1
  48   28   30 1
  49   28   31 1

#	End of record

