#	Name: ASD05250062
#	Creating user name:	WinNT
#	Creation time:	15. 06. 2019 20:58

#	Modifying user name:	WinNT
#	Modification time:	15. 06. 2019 20:58

#	Program:	/corina/corina34_cracker 3.40 0067  02.08.2006

@<TRIPOS>MOLECULE
ASD05250062
  91   92    0    0    0
SMALL
NO_CHARGES


@<TRIPOS>ATOM
   1 C1            -0.0176     1.4478     0.0100 C.3     
   2 O2             0.0021    -0.0041     0.0020 O.3     
   3 C3             1.4178     1.9774    -0.0009 C.3     
   4 C4            -0.7576     1.9546    -1.2295 C.3     
   5 C5            -0.7338     1.9412     1.2688 C.3     
   6 C6             0.6200    -0.6127     1.0318 C.2     
   7 N7             0.6741    -1.9583     1.0852 N.am    
   8 O8             1.1289     0.0513     1.9131 O.2     
   9 C9             1.3465    -2.6205     2.2057 C.3     
  10 C10            0.7784    -4.0047     2.3853 C.2     
  11 C11            2.8455    -2.7181     1.9153 C.3     
  12 C12            3.4222    -1.3127     1.7330 C.3     
  13 C13            3.5477    -3.4097     3.0856 C.3     
  14 C14            0.5211    -4.5930     3.5632 C.2     
  15 C15           -0.0181    -5.9228     3.2416 C.2     
  16 C16           -0.0281    -5.9949     1.8786 C.2     
  17 O17            0.4439    -4.8433     1.3921 O.3     
  18 C18           -0.4966    -7.1712     1.0613 C.3     
  19 C19           -1.9905    -7.0242     0.7657 C.3     
  20 C20           -2.4590    -8.2005    -0.0516 C.2     
  21 C21           -2.9465    -9.3780     0.4281 C.2     
  22 N22           -3.2480   -10.1541    -0.6486 N.2     
  23 C23           -2.9615    -9.4900    -1.7279 C.2     
  24 O24           -2.4807    -8.2848    -1.3911 O.3     
  25 C25           -3.1462    -9.9930    -3.1364 C.3     
  26 C26           -2.0525   -11.0122    -3.4616 C.3     
  27 N27           -4.4596   -10.6302    -3.2591 N.am    
  28 C28           -2.2400   -11.5228    -4.8916 C.3     
  29 C29           -0.6808   -10.3467    -3.3335 C.3     
  30 C30           -5.0641   -10.7020    -4.4616 C.2     
  31 O31           -4.5197   -10.2383    -5.4440 O.2     
  32 O32           -6.2712   -11.2877    -4.5744 O.3     
  33 C33           -6.8625   -11.3291    -5.8998 C.3     
  34 C34           -5.9408   -12.1017    -6.8456 C.3     
  35 C35           -8.2223   -12.0269    -5.8300 C.3     
  36 C36           -7.0475    -9.9024    -6.4206 C.3     
  37 C37           -3.1150    -9.7432     1.8448 C.2     
  38 O38           -2.8050    -8.9551     2.7165 O.2     
  39 O39           -3.6130   -10.9514     2.1746 O.3     
  40 C40           -3.7515   -11.2432     3.5903 C.3     
  41 C41           -0.4549    -6.9598     4.1911 C.2     
  42 O42           -0.8822    -8.0202     3.7788 O.2     
  43 O43           -0.3809    -6.7331     5.5176 O.3     
  44 C44           -0.8289    -7.8000     6.3947 C.3     
  45 H45            1.9280     1.6258    -0.8977 H       
  46 H46            1.4030     3.0672     0.0051 H       
  47 H47            1.9450     1.6163     0.8822 H       
  48 H48           -1.7802     1.5773    -1.2218 H       
  49 H49           -0.7724     3.0445    -1.2235 H       
  50 H50           -0.2474     1.6031    -2.1263 H       
  51 H51           -0.2066     1.5801     2.1519 H       
  52 H52           -0.7485     3.0311     1.2748 H       
  53 H53           -1.7563     1.5639     1.2765 H       
  54 H54            0.2679    -2.4883     0.3816 H       
  55 H55            1.1897    -2.0425     3.1164 H       
  56 H56            3.0023    -3.2961     1.0046 H       
  57 H57            3.2655    -0.7347     2.6437 H       
  58 H58            4.4902    -1.3823     1.5261 H       
  59 H59            2.9220    -0.8200     0.8993 H       
  60 H60            3.1369    -4.4109     3.2154 H       
  61 H61            4.6157    -3.4792     2.8787 H       
  62 H62            3.3909    -2.8316     3.9963 H       
  63 H63            0.6783    -4.1754     4.5468 H       
  64 H64            0.0577    -7.2058     0.1234 H       
  65 H65           -0.3254    -8.0921     1.6187 H       
  66 H66           -2.5448    -6.9896     1.7036 H       
  67 H67           -2.1617    -6.1033     0.2083 H       
  68 H68           -3.0818    -9.1565    -3.8323 H       
  69 H69           -2.1169   -11.8487    -2.7657 H       
  70 H70           -4.8942   -11.0004    -2.4749 H       
  71 H71           -2.1756   -10.6863    -5.5875 H       
  72 H72           -1.4608   -12.2490    -5.1233 H       
  73 H73           -3.2172   -11.9970    -4.9829 H       
  74 H74           -0.5472    -9.9829    -2.3147 H       
  75 H75            0.0984   -11.0729    -3.5651 H       
  76 H76           -0.6163    -9.5102    -4.0293 H       
  77 H77           -5.8090   -13.1181    -6.4746 H       
  78 H78           -6.3847   -12.1329    -7.8406 H       
  79 H79           -4.9720   -11.6046    -6.8953 H       
  80 H80           -8.8790   -11.4765    -5.1563 H       
  81 H81           -8.6663   -12.0580    -6.8251 H       
  82 H82           -8.0905   -13.0433    -5.4590 H       
  83 H83           -6.0788    -9.4053    -6.4703 H       
  84 H84           -7.4914    -9.9336    -7.4156 H       
  85 H85           -7.7042    -9.3520    -5.7469 H       
  86 H86           -2.7742   -11.1884     4.0698 H       
  87 H87           -4.4219   -10.5154     4.0474 H       
  88 H88           -4.1624   -12.2449     3.7162 H       
  89 H89           -1.8773    -8.0199     6.1932 H       
  90 H90           -0.2296    -8.6928     6.2162 H       
  91 H91           -0.7161    -7.4882     7.4330 H       
@<TRIPOS>BOND
   1    1    2 1
   2    1    3 1
   3    1    4 1
   4    1    5 1
   5    2    6 1
   6    3   45 1
   7    3   46 1
   8    3   47 1
   9    4   48 1
  10    4   49 1
  11    4   50 1
  12    5   51 1
  13    5   52 1
  14    5   53 1
  15    6    7 am
  16    6    8 2
  17    7    9 1
  18    7   54 1
  19    9   10 1
  20    9   11 1
  21    9   55 1
  22   10   14 2
  23   10   17 1
  24   11   12 1
  25   11   13 1
  26   11   56 1
  27   12   57 1
  28   12   58 1
  29   12   59 1
  30   13   60 1
  31   13   61 1
  32   13   62 1
  33   14   15 1
  34   14   63 1
  35   15   16 2
  36   15   41 1
  37   16   17 1
  38   16   18 1
  39   18   19 1
  40   18   64 1
  41   18   65 1
  42   19   20 1
  43   19   66 1
  44   19   67 1
  45   20   21 2
  46   20   24 1
  47   21   22 1
  48   21   37 1
  49   22   23 2
  50   23   24 1
  51   23   25 1
  52   25   26 1
  53   25   27 1
  54   25   68 1
  55   26   28 1
  56   26   29 1
  57   26   69 1
  58   27   30 am
  59   27   70 1
  60   28   71 1
  61   28   72 1
  62   28   73 1
  63   29   74 1
  64   29   75 1
  65   29   76 1
  66   30   31 2
  67   30   32 1
  68   32   33 1
  69   33   34 1
  70   33   35 1
  71   33   36 1
  72   34   77 1
  73   34   78 1
  74   34   79 1
  75   35   80 1
  76   35   81 1
  77   35   82 1
  78   36   83 1
  79   36   84 1
  80   36   85 1
  81   37   38 2
  82   37   39 1
  83   39   40 1
  84   40   86 1
  85   40   87 1
  86   40   88 1
  87   41   42 2
  88   41   43 1
  89   43   44 1
  90   44   89 1
  91   44   90 1
  92   44   91 1

#	End of record

