#	Name: ASD02560303
#	Creating user name:	WinNT
#	Creation time:	15. 06. 2019 20:25

#	Modifying user name:	WinNT
#	Modification time:	15. 06. 2019 20:25

#	Program:	/corina/corina34_cracker 3.40 0067  02.08.2006

@<TRIPOS>MOLECULE
ASD02560303
  39   41    0    0    0
SMALL
NO_CHARGES


@<TRIPOS>ATOM
   1 C1             0.0070     1.3259     0.2317 C.2     
   2 O2             0.0151    -0.0204     0.1232 O.3     
   3 C3            -1.2607    -0.4373     0.1092 C.2     
   4 N4            -2.0431     0.6095     0.2054 N.2     
   5 C5            -1.2760     1.7133     0.2876 C.2     
   6 N6            -1.6794    -1.7517     0.0094 N.pl3   
   7 C7             1.2151     2.2252     0.2864 C.3     
   8 C8            -3.0309    -2.0622     0.1266 C.ar    
   9 C9            -3.5532    -3.1584    -0.5545 C.ar    
  10 C10           -4.8843    -3.4674    -0.4409 C.ar    
  11 C11           -5.7174    -2.6800     0.3603 C.ar    
  12 C12           -5.1894    -1.5796     1.0430 C.ar    
  13 C13           -3.8563    -1.2793     0.9291 C.ar    
  14 C14            1.6388     2.4105     1.7207 C.ar    
  15 C15            2.5493     1.5392     2.2912 C.ar    
  16 C16            1.1218     3.4552     2.4655 C.ar    
  17 C17            1.5113     3.6248     3.7823 C.ar    
  18 C18            2.4167     2.7506     4.3535 C.ar    
  19 C19            2.9380     1.7098     3.6081 C.ar    
  20 Cl20          -0.0149     4.5537     1.7480 Cl      
  21 Cl21           3.2037     0.2317     1.3553 Cl      
  22 C22           -7.1489    -3.0089     0.4844 C.2     
  23 O23           -7.6063    -3.9651    -0.1097 O.2     
  24 O24           -7.9503    -2.2492     1.2568 O.3     
  25 C25           -9.3489    -2.6320     1.3323 C.3     
  26 H26           -1.6306     2.7295     0.3767 H       
  27 H27           -1.0311    -2.4571    -0.1423 H       
  28 H28            2.0306     1.7729    -0.2779 H       
  29 H29            0.9668     3.1939    -0.1471 H       
  30 H30           -2.9094    -3.7659    -1.1733 H       
  31 H31           -5.2890    -4.3177    -0.9697 H       
  32 H32           -5.8301    -0.9693     1.6622 H       
  33 H33           -3.4479    -0.4297     1.4561 H       
  34 H34            1.1080     4.4407     4.3638 H       
  35 H35            2.7207     2.8835     5.3813 H       
  36 H36            3.6454     1.0270     4.0550 H       
  37 H37           -9.4278    -3.6424     1.7333 H       
  38 H38           -9.8804    -1.9394     1.9850 H       
  39 H39           -9.7883    -2.6014     0.3352 H       
@<TRIPOS>BOND
   1    1    2 1
   2    1    7 1
   3    1    5 2
   4    2    3 1
   5    3    4 2
   6    3    6 1
   7    4    5 1
   8    5   26 1
   9    6    8 1
  10    6   27 1
  11    7   14 1
  12    7   28 1
  13    7   29 1
  14    8    9 ar
  15    8   13 ar
  16    9   10 ar
  17    9   30 1
  18   10   11 ar
  19   10   31 1
  20   11   12 ar
  21   11   22 1
  22   12   13 ar
  23   12   32 1
  24   13   33 1
  25   14   15 ar
  26   14   16 ar
  27   15   21 1
  28   15   19 ar
  29   16   17 ar
  30   16   20 1
  31   17   18 ar
  32   17   34 1
  33   18   19 ar
  34   18   35 1
  35   19   36 1
  36   22   23 2
  37   22   24 1
  38   24   25 1
  39   25   37 1
  40   25   38 1
  41   25   39 1

#	End of record

