#	Name: ASD01816028
#	Creating user name:	WinNT
#	Creation time:	15. 06. 2019 19:34

#	Modifying user name:	WinNT
#	Modification time:	15. 06. 2019 19:34

#	Program:	/corina/corina34_cracker 3.40 0067  02.08.2006

@<TRIPOS>MOLECULE
ASD01816028
  52   56    0    0    0
SMALL
NO_CHARGES


@<TRIPOS>ATOM
   1 C1            -0.0167     1.3813     0.0096 C.ar    
   2 C2             0.0021    -0.0041     0.0020 C.ar    
   3 C3             1.1984    -0.6909    -0.0131 C.ar    
   4 C4             2.4015     0.0059    -0.0209 C.ar    
   5 C5             2.3790     1.4106    -0.0132 C.ar    
   6 C6             1.1663     2.0916     0.0022 C.ar    
   7 N7             3.6053    -0.6772    -0.0356 N.pl3   
   8 C8             4.7970    -0.0586    -0.0433 C.2     
   9 C9             4.9000     1.3103    -0.0373 C.2     
  10 C10            3.6670     2.1301    -0.0217 C.2     
  11 C11            5.9971     2.2729    -0.0432 C.2     
  12 N12            5.4245     3.4960    -0.0323 N.am    
  13 N13            4.0323     3.3799    -0.0195 N.2     
  14 C14            6.1264     4.7082    -0.0333 C.ar    
  15 O15            7.1914     2.0229    -0.0548 O.2     
  16 C16            3.5779    -2.1419    -0.0427 C.3     
  17 C17            6.5546     5.2634    -1.2317 C.ar    
  18 C18            7.2466     6.4588    -1.2297 C.ar    
  19 C19            7.5142     7.1036    -0.0359 C.ar    
  20 C20            7.0900     6.5550     1.1603 C.ar    
  21 C21            6.3912     5.3614     1.1656 C.ar    
  22 F22            5.9763     4.8253     2.3342 F       
  23 C23            3.5552    -2.6371    -1.4659 C.ar    
  24 C24            2.3634    -3.0381    -2.0382 C.ar    
  25 C25            2.3394    -3.4930    -3.3429 C.ar    
  26 C26            3.5127    -3.5476    -4.0815 C.ar    
  27 C27            4.7100    -3.1453    -3.5095 C.ar    
  28 C28            4.7306    -2.6845    -2.2024 C.ar    
  29 O29            3.4885    -3.9955    -5.3643 O.3     
  30 C30            2.2203    -4.3940    -5.8885 C.3     
  31 O31            5.9025    -2.2894    -1.6390 O.3     
  32 C32            7.0747    -2.3758    -2.4518 C.3     
  33 H33           -0.9602     1.9068     0.0170 H       
  34 H34           -0.9289    -0.5516     0.0083 H       
  35 H35            1.2004    -1.7709    -0.0186 H       
  36 H36            1.1506     3.1715     0.0077 H       
  37 H37            5.6983    -0.6536    -0.0540 H       
  38 H38            4.4657    -2.5244     0.4609 H       
  39 H39            2.6861    -2.4912     0.4778 H       
  40 H40            6.3471     4.7607    -2.1648 H       
  41 H41            7.5796     6.8905    -2.1620 H       
  42 H42            8.0561     8.0378    -0.0379 H       
  43 H43            7.3009     7.0609     2.0909 H       
  44 H44            1.4491    -2.9963    -1.4649 H       
  45 H45            1.4066    -3.8066    -3.7879 H       
  46 H46            5.6244    -3.1874    -4.0827 H       
  47 H47            1.8179    -5.2085    -5.2863 H       
  48 H48            1.5336    -3.5480    -5.8607 H       
  49 H49            2.3420    -4.7294    -6.9185 H       
  50 H50            6.9501    -1.7517    -3.3366 H       
  51 H51            7.9378    -2.0309    -1.8824 H       
  52 H52            7.2303    -3.4109    -2.7561 H       
@<TRIPOS>BOND
   1    1    2 ar
   2    1    6 ar
   3    1   33 1
   4    2    3 ar
   5    2   34 1
   6    3    4 ar
   7    3   35 1
   8    4    5 ar
   9    4    7 1
  10    5    6 ar
  11    5   10 1
  12    6   36 1
  13    7    8 1
  14    7   16 1
  15    8    9 2
  16    8   37 1
  17    9   10 1
  18    9   11 1
  19   10   13 2
  20   11   12 am
  21   11   15 2
  22   12   13 1
  23   12   14 1
  24   14   17 ar
  25   14   21 ar
  26   16   23 1
  27   16   38 1
  28   16   39 1
  29   17   18 ar
  30   17   40 1
  31   18   19 ar
  32   18   41 1
  33   19   20 ar
  34   19   42 1
  35   20   21 ar
  36   20   43 1
  37   21   22 1
  38   23   24 ar
  39   23   28 ar
  40   24   25 ar
  41   24   44 1
  42   25   26 ar
  43   25   45 1
  44   26   27 ar
  45   26   29 1
  46   27   28 ar
  47   27   46 1
  48   28   31 1
  49   29   30 1
  50   30   47 1
  51   30   48 1
  52   30   49 1
  53   31   32 1
  54   32   50 1
  55   32   51 1
  56   32   52 1

#	End of record

