#	Name: ASD02500853
#	Creating user name:	WinNT
#	Creation time:	15. 06. 2019 20:23

#	Modifying user name:	WinNT
#	Modification time:	15. 06. 2019 20:23

#	Program:	/corina/corina34_cracker 3.40 0067  02.08.2006

@<TRIPOS>MOLECULE
ASD02500853
  53   56    0    0    0
SMALL
NO_CHARGES


@<TRIPOS>ATOM
   1 C1             2.2449     1.3997     0.5744 C.ar    
   2 C2             2.2532     0.0176     0.5718 C.ar    
   3 C3             1.2116    -0.6876    -0.0197 C.ar    
   4 C4             0.1597    -0.0050    -0.6097 C.ar    
   5 C5             0.1507     1.3905    -0.6068 C.ar    
   6 C6             1.2019     2.0893    -0.0099 C.ar    
   7 C7            -0.9324     2.1032    -1.2147 C.1     
   8 N8             1.2254    -2.0870    -0.0199 N.am    
   9 C9             0.0700    -2.7723     0.0892 C.2     
  10 O10           -0.9702    -2.1801     0.2844 O.2     
  11 C11            0.0707    -4.2745    -0.0315 C.3     
  12 N12           -1.2967    -4.7774     0.1223 N.pl3   
  13 C13           -2.2161    -4.9706    -0.8893 C.ar    
  14 C14           -3.3775    -5.4622    -0.2691 C.ar    
  15 N15           -3.1122    -5.5418     1.0603 N.2     
  16 C16           -1.8938    -5.1461     1.2877 C.2     
  17 C17           -2.1939    -4.7838    -2.2644 C.ar    
  18 C18           -3.3132    -5.0825    -3.0124 C.ar    
  19 C19           -4.4594    -5.5678    -2.3996 C.ar    
  20 C20           -4.4994    -5.7582    -1.0472 C.ar    
  21 C21           -1.2421    -5.0949     2.6455 C.3     
  22 N22           -2.1708    -4.5019     3.6109 N.am    
  23 C23           -1.6964    -3.8944     4.7166 C.2     
  24 C24           -2.6336    -3.2959     5.6909 C.ar    
  25 O25           -0.4981    -3.8387     4.9128 O.2     
  26 C26           -2.1457    -2.6661     6.8370 C.ar    
  27 C27           -3.0256    -2.1097     7.7421 C.ar    
  28 C28           -4.3891    -2.1749     7.5158 C.ar    
  29 C29           -4.8793    -2.7981     6.3820 C.ar    
  30 C30           -4.0099    -3.3531     5.4658 C.ar    
  31 N31           -1.7916     2.6687    -1.6970 N.1     
  32 C32           -0.8800    -6.5131     3.0911 C.3     
  33 H33            3.0550     1.9418     1.0393 H       
  34 H34            3.0722    -0.5165     1.0307 H       
  35 H35           -0.6502    -0.5512    -1.0704 H       
  36 H36            1.1987     3.1693    -0.0051 H       
  37 H37            2.0665    -2.5637    -0.0985 H       
  38 H38            0.4549    -4.5602    -1.0108 H       
  39 H39            0.7043    -4.7012     0.7460 H       
  40 H40           -1.3043    -4.4059    -2.7463 H       
  41 H41           -3.2976    -4.9373    -4.0825 H       
  42 H42           -5.3289    -5.7973    -2.9977 H       
  43 H43           -5.3967    -6.1370    -0.5805 H       
  44 H44           -0.3377    -4.4889     2.5918 H       
  45 H45           -3.1270    -4.5463     3.4544 H       
  46 H46           -1.0817    -2.6149     7.0149 H       
  47 H47           -2.6494    -1.6224     8.6295 H       
  48 H48           -5.0737    -1.7377     8.2276 H       
  49 H49           -5.9447    -2.8459     6.2114 H       
  50 H50           -4.3938    -3.8390     4.5809 H       
  51 H51           -1.7844    -7.1192     3.1448 H       
  52 H52           -0.1890    -6.9544     2.3728 H       
  53 H53           -0.4086    -6.4761     4.0732 H       
@<TRIPOS>BOND
   1    1    2 ar
   2    1    6 ar
   3    1   33 1
   4    2    3 ar
   5    2   34 1
   6    3    4 ar
   7    3    8 1
   8    4    5 ar
   9    4   35 1
  10    5    6 ar
  11    5    7 1
  12    6   36 1
  13    7   31 3
  14    8    9 am
  15    8   37 1
  16    9   10 2
  17    9   11 1
  18   11   12 1
  19   11   38 1
  20   11   39 1
  21   12   13 1
  22   12   16 1
  23   13   14 ar
  24   13   17 ar
  25   14   15 1
  26   14   20 ar
  27   15   16 2
  28   16   21 1
  29   17   18 ar
  30   17   40 1
  31   18   19 ar
  32   18   41 1
  33   19   20 ar
  34   19   42 1
  35   20   43 1
  36   21   22 1
  37   21   32 1
  38   21   44 1
  39   22   23 am
  40   22   45 1
  41   23   24 1
  42   23   25 2
  43   24   26 ar
  44   24   30 ar
  45   26   27 ar
  46   26   46 1
  47   27   28 ar
  48   27   47 1
  49   28   29 ar
  50   28   48 1
  51   29   30 ar
  52   29   49 1
  53   30   50 1
  54   32   51 1
  55   32   52 1
  56   32   53 1

#	End of record

