#	Name: ASD05503033
#	Creating user name:	WinNT
#	Creation time:	15. 06. 2019 21:01

#	Modifying user name:	WinNT
#	Modification time:	15. 06. 2019 21:01

#	Program:	/corina/corina34_cracker 3.40 0067  02.08.2006

@<TRIPOS>MOLECULE
ASD05503033
  39   40    0    0    0
SMALL
NO_CHARGES


@<TRIPOS>ATOM
   1 C1            -0.1502     1.3616     0.4404 C.ar    
   2 C2            -0.0925    -0.0174     0.2840 C.ar    
   3 C3             1.1378    -0.6541     0.2035 C.ar    
   4 C4             2.3067     0.0894     0.2795 C.ar    
   5 C5             2.2421     1.4687     0.4359 C.ar    
   6 C6             1.0157     2.0994     0.5158 C.ar    
   7 N7            -1.2736    -0.7637     0.2083 N.am    
   8 C8            -1.3334    -1.8521    -0.5843 C.2     
   9 C9            -2.5622    -2.7245    -0.5750 C.3     
  10 O10           -0.3982    -2.1295    -1.3051 O.2     
  11 C11           -2.3728    -3.8828    -1.5566 C.3     
  12 C12           -3.6203    -4.7684    -1.5471 C.3     
  13 N13            3.5486    -0.5485     0.1992 N.am    
  14 C14            4.5816     0.0624    -0.4142 C.2     
  15 C15            5.8632    -0.6516    -0.5902 C.ar    
  16 O16            4.4589     1.2008    -0.8226 O.2     
  17 C17            6.0075    -1.9588    -0.1225 C.ar    
  18 C18            7.2076    -2.6202    -0.2907 C.ar    
  19 C19            8.2668    -1.9897    -0.9218 C.ar    
  20 C20            8.1307    -0.6944    -1.3873 C.ar    
  21 C21            6.9342    -0.0233    -1.2308 C.ar    
  22 Br22           6.7505     1.7476    -1.8679 Br      
  23 Cl23           7.3895    -4.2458     0.2907 Cl      
  24 H24           -1.1075     1.8583     0.4986 H       
  25 H25            1.1853    -1.7263     0.0823 H       
  26 H26            3.1515     2.0481     0.4955 H       
  27 H27            0.9681     3.1715     0.6370 H       
  28 H28           -2.0495    -0.4977     0.7262 H       
  29 H29           -2.7190    -3.1205     0.4283 H       
  30 H30           -3.4290    -2.1343    -0.8723 H       
  31 H31           -2.2159    -3.4868    -2.5599 H       
  32 H32           -1.5059    -4.4729    -1.2592 H       
  33 H33           -3.7772    -5.1644    -0.5438 H       
  34 H34           -4.4872    -4.1783    -1.8444 H       
  35 H35           -3.4854    -5.5936    -2.2464 H       
  36 H36            3.6666    -1.4307     0.5849 H       
  37 H37            5.1823    -2.4515     0.3702 H       
  38 H38            9.2034    -2.5116    -1.0509 H       
  39 H39            8.9609    -0.2082    -1.8780 H       
@<TRIPOS>BOND
   1    1    2 ar
   2    1    6 ar
   3    1   24 1
   4    2    3 ar
   5    2    7 1
   6    3    4 ar
   7    3   25 1
   8    4    5 ar
   9    4   13 1
  10    5    6 ar
  11    5   26 1
  12    6   27 1
  13    7    8 am
  14    7   28 1
  15    8    9 1
  16    8   10 2
  17    9   11 1
  18    9   29 1
  19    9   30 1
  20   11   12 1
  21   11   31 1
  22   11   32 1
  23   12   33 1
  24   12   34 1
  25   12   35 1
  26   13   14 am
  27   13   36 1
  28   14   15 1
  29   14   16 2
  30   15   17 ar
  31   15   21 ar
  32   17   18 ar
  33   17   37 1
  34   18   19 ar
  35   18   23 1
  36   19   20 ar
  37   19   38 1
  38   20   21 ar
  39   20   39 1
  40   21   22 1

#	End of record

