#	Name: ASD02398084
#	Creating user name:	WinNT
#	Creation time:	15. 06. 2019 20:20

#	Modifying user name:	WinNT
#	Modification time:	15. 06. 2019 20:20

#	Program:	/corina/corina34_cracker 3.40 0067  02.08.2006

@<TRIPOS>MOLECULE
ASD02398084
  42   43    0    0    0
SMALL
NO_CHARGES


@<TRIPOS>ATOM
   1 C1            -0.0167     1.3833     0.0096 C.ar    
   2 C2             0.0021    -0.0041     0.0020 C.ar    
   3 C3            -1.1853    -0.7097     0.0095 C.ar    
   4 C4            -2.3921    -0.0347     0.0242 C.ar    
   5 C5            -2.4135     1.3476     0.0318 C.ar    
   6 C6            -1.2285     2.0581     0.0306 C.ar    
   7 C7             1.3169    -0.7404    -0.0149 C.3     
   8 C8             1.4196    -1.6237     1.2277 C.3     
   9 C9             0.4523    -2.7730     1.1215 C.2     
  10 C10            0.1990    -3.3264    -0.0658 C.2     
  11 C11            0.8684    -2.8049    -1.2718 C.2     
  12 C12            1.3991    -1.5879    -1.2566 C.2     
  13 C13            2.0861    -1.0529    -2.4865 C.3     
  14 O14            2.0352    -2.0333    -3.5250 O.3     
  15 C15           -3.6860    -0.8071     0.0313 C.3     
  16 C16           -4.1047    -1.0727     1.4544 C.2     
  17 O17           -3.4223    -0.6755     2.3690 O.2     
  18 O18           -5.2356    -1.7505     1.7060 O.3     
  19 O19           -0.6712    -4.3656    -0.1631 O.3     
  20 C20           -1.2809    -4.8168     1.0480 C.3     
  21 O21            1.1501     2.0799     0.0022 O.3     
  22 C22            1.0546     3.5057     0.0108 C.3     
  23 H23           -1.1711    -1.7896     0.0036 H       
  24 H24           -3.3573     1.8725     0.0432 H       
  25 H25           -1.2458     3.1379     0.0366 H       
  26 H26            2.1349    -0.0201    -0.0155 H       
  27 H27            2.4347    -2.0116     1.3132 H       
  28 H28            1.1837    -1.0326     2.1126 H       
  29 H29           -0.0367    -3.1499     2.0076 H       
  30 H30            0.9269    -3.4107    -2.1641 H       
  31 H31            1.5819    -0.1454    -2.8186 H       
  32 H32            3.1260    -0.8258    -2.2520 H       
  33 H33            2.4595    -1.7562    -4.3486 H       
  34 H34           -4.4587    -0.2262    -0.4723 H       
  35 H35           -3.5465    -1.7546    -0.4892 H       
  36 H36           -5.4627    -1.8964     2.6345 H       
  37 H37           -1.9511    -5.6482     0.8295 H       
  38 H38           -0.5084    -5.1458     1.7430 H       
  39 H39           -1.8483    -4.0006     1.4952 H       
  40 H40            2.0556     3.9369     0.0036 H       
  41 H41            0.5092     3.8386    -0.8722 H       
  42 H42            0.5262     3.8290     0.9076 H       
@<TRIPOS>BOND
   1    1    2 ar
   2    1   21 1
   3    1    6 ar
   4    2    3 ar
   5    2    7 1
   6    3    4 ar
   7    3   23 1
   8    4    5 ar
   9    4   15 1
  10    5    6 ar
  11    5   24 1
  12    6   25 1
  13    7    8 1
  14    7   12 1
  15    7   26 1
  16    8    9 1
  17    8   27 1
  18    8   28 1
  19    9   10 2
  20    9   29 1
  21   10   11 1
  22   10   19 1
  23   11   12 2
  24   11   30 1
  25   12   13 1
  26   13   14 1
  27   13   31 1
  28   13   32 1
  29   14   33 1
  30   15   16 1
  31   15   34 1
  32   15   35 1
  33   16   17 2
  34   16   18 1
  35   18   36 1
  36   19   20 1
  37   20   37 1
  38   20   38 1
  39   20   39 1
  40   21   22 1
  41   22   40 1
  42   22   41 1
  43   22   42 1

#	End of record

