#	Name: ASD01900506
#	Creating user name:	WinNT
#	Creation time:	15. 06. 2019 19:52

#	Modifying user name:	WinNT
#	Modification time:	15. 06. 2019 19:52

#	Program:	/corina/corina34_cracker 3.40 0067  02.08.2006

@<TRIPOS>MOLECULE
ASD01900506
  25   27    0    0    0
SMALL
NO_CHARGES


@<TRIPOS>ATOM
   1 C1            -0.0261     1.3896     0.1265 C.ar    
   2 C2             0.0066     0.0004    -0.0642 C.ar    
   3 C3             1.2220    -0.6690     0.0508 C.ar    
   4 C4             2.3513     0.0704     0.3500 C.ar    
   5 C5             2.2442     1.4426     0.5255 C.ar    
   6 N6             1.0868     2.0556     0.4129 N.ar    
   7 O7            -1.2507    -0.3998    -0.3376 O.3     
   8 N8            -2.1133     0.7200    -0.3280 N.2     
   9 C9            -1.4306     1.7960    -0.0527 C.2     
  10 N10           -1.9330     3.0872     0.0451 N.pl3   
  11 C11           -3.3100     3.3095    -0.0403 C.ar    
  12 C12           -4.2004     2.3268     0.3729 C.ar    
  13 C13           -5.5625     2.5506     0.2874 C.ar    
  14 C14           -6.0376     3.7533    -0.2098 C.ar    
  15 C15           -5.1523     4.7320    -0.6212 C.ar    
  16 C16           -3.7908     4.5160    -0.5332 C.ar    
  17 F17           -6.4301     1.5958     0.6883 F       
  18 H18            1.2811    -1.7381    -0.0898 H       
  19 H19            3.3103    -0.4169     0.4469 H       
  20 H20            3.1280     2.0177     0.7591 H       
  21 H21           -1.3280     3.8346     0.1726 H       
  22 H22           -3.8296     1.3893     0.7600 H       
  23 H23           -7.1015     3.9264    -0.2763 H       
  24 H24           -5.5258     5.6684    -1.0087 H       
  25 H25           -3.1005     5.2832    -0.8513 H       
@<TRIPOS>BOND
   1    1    2 ar
   2    1    6 ar
   3    1    9 1
   4    2    3 ar
   5    2    7 1
   6    3    4 ar
   7    3   18 1
   8    4    5 ar
   9    4   19 1
  10    5    6 ar
  11    5   20 1
  12    7    8 1
  13    8    9 2
  14    9   10 1
  15   10   11 1
  16   10   21 1
  17   11   12 ar
  18   11   16 ar
  19   12   13 ar
  20   12   22 1
  21   13   14 ar
  22   13   17 1
  23   14   15 ar
  24   14   23 1
  25   15   16 ar
  26   15   24 1
  27   16   25 1

#	End of record

