#	Name: ASD01913120
#	Creating user name:	WinNT
#	Creation time:	15. 06. 2019 20:01

#	Modifying user name:	WinNT
#	Modification time:	15. 06. 2019 20:01

#	Program:	/corina/corina34_cracker 3.40 0067  02.08.2006

@<TRIPOS>MOLECULE
ASD01913120
  44   47    0    0    0
SMALL
NO_CHARGES


@<TRIPOS>ATOM
   1 C1            -0.7928     1.6848    -0.2471 C.ar    
   2 C2            -0.6351     0.2093    -0.2321 C.2     
   3 N3            -1.6325    -0.7030    -0.2568 N.2     
   4 C4            -1.1082    -1.8936    -0.2323 C.2     
   5 O5             0.2264    -1.7836    -0.1916 O.3     
   6 C6             0.5356    -0.4726    -0.1970 C.2     
   7 C7            -1.8787    -3.1887    -0.2469 C.3     
   8 C8            -1.4819    -4.0052    -1.4789 C.3     
   9 C9            -2.2878    -5.3058    -1.5122 C.3     
  10 C10           -1.9690    -6.1315    -0.2618 C.3     
  11 N11           -2.2106    -5.3021     0.9268 N.am    
  12 C12           -1.5552    -3.9903     1.0179 C.3     
  13 C13           -3.0179    -5.7365     1.9147 C.2     
  14 C14           -3.1495    -4.9503     3.1635 C.ar    
  15 O15           -3.6379    -6.7730     1.7811 O.2     
  16 C16           -4.3923    -4.7916     3.7849 C.ar    
  17 C17           -4.4712    -4.0513     4.9479 C.ar    
  18 N18           -3.3959    -3.4978     5.4732 N.ar    
  19 C19           -2.2039    -3.6220     4.9203 C.ar    
  20 C20           -2.0343    -4.3519     3.7557 C.ar    
  21 C21            0.3299     2.5068    -0.3230 C.ar    
  22 C22            0.1786     3.8783    -0.3372 C.ar    
  23 C23           -1.0871     4.4383    -0.2757 C.ar    
  24 C24           -2.2060     3.6248    -0.2001 C.ar    
  25 C25           -2.0642     2.2523    -0.1912 C.ar    
  26 F26           -1.2307     5.7816    -0.2889 F       
  27 F27           -1.1349    -3.0340     5.5005 F       
  28 H28            1.5274    -0.0460    -0.1707 H       
  29 H29           -2.9472    -2.9759    -0.2800 H       
  30 H30           -1.6883    -3.4271    -2.3796 H       
  31 H31           -0.4181    -4.2382    -1.4330 H       
  32 H32           -3.3526    -5.0737    -1.5331 H       
  33 H33           -2.0217    -5.8760    -2.4022 H       
  34 H34           -2.6124    -7.0108    -0.2307 H       
  35 H35           -0.9242    -6.4412    -0.2850 H       
  36 H36           -0.4767    -4.1254     1.0990 H       
  37 H37           -1.9256    -3.4568     1.8933 H       
  38 H38           -5.2780    -5.2414     3.3610 H       
  39 H39           -5.4271    -3.9236     5.4339 H       
  40 H40           -1.0565    -4.4505     3.3078 H       
  41 H41            1.3169     2.0711    -0.3704 H       
  42 H42            1.0481     4.5161    -0.3961 H       
  43 H43           -3.1908     4.0655    -0.1519 H       
  44 H44           -2.9370     1.6188    -0.1322 H       
@<TRIPOS>BOND
   1    1    2 1
   2    1   21 ar
   3    1   25 ar
   4    2    3 1
   5    2    6 2
   6    3    4 2
   7    4    5 1
   8    4    7 1
   9    5    6 1
  10    6   28 1
  11    7    8 1
  12    7   12 1
  13    7   29 1
  14    8    9 1
  15    8   30 1
  16    8   31 1
  17    9   10 1
  18    9   32 1
  19    9   33 1
  20   10   11 1
  21   10   34 1
  22   10   35 1
  23   11   12 1
  24   11   13 am
  25   12   36 1
  26   12   37 1
  27   13   14 1
  28   13   15 2
  29   14   16 ar
  30   14   20 ar
  31   16   17 ar
  32   16   38 1
  33   17   18 ar
  34   17   39 1
  35   18   19 ar
  36   19   20 ar
  37   19   27 1
  38   20   40 1
  39   21   22 ar
  40   21   41 1
  41   22   23 ar
  42   22   42 1
  43   23   24 ar
  44   23   26 1
  45   24   25 ar
  46   24   43 1
  47   25   44 1

#	End of record

