#	Name: ASD01913351
#	Creating user name:	WinNT
#	Creation time:	15. 06. 2019 20:01

#	Modifying user name:	WinNT
#	Modification time:	15. 06. 2019 20:01

#	Program:	/corina/corina34_cracker 3.40 0067  02.08.2006

@<TRIPOS>MOLECULE
ASD01913351
  37   39    0    0    0
SMALL
NO_CHARGES


@<TRIPOS>ATOM
   1 C1            -0.0166     1.3765     0.0096 C.2     
   2 C2             0.0021    -0.0041     0.0020 C.2     
   3 C3             1.2499    -0.6727    -0.0135 C.2     
   4 N4             2.3635     0.0159    -0.0204 N.2     
   5 C5             2.3514     1.3566    -0.0131 C.2     
   6 N6             1.1685     2.0507     0.0019 N.pl3   
   7 C7             3.3711     2.2994    -0.0178 C.2     
   8 C8             2.7831     3.5557    -0.0054 C.2     
   9 N9             1.4768     3.4160     0.0063 N.2     
  10 C10            3.5231     4.8685    -0.0047 C.3     
  11 C11           -1.2215    -0.7480     0.0102 C.1     
  12 C12           -2.2246    -1.3579     0.0169 C.1     
  13 C13           -3.4482    -2.1018     0.0250 C.ar    
  14 C14           -3.4305    -3.4988     0.0174 C.ar    
  15 N15           -4.5557    -4.1828     0.0248 N.ar    
  16 C16           -5.7330    -3.5881     0.0396 C.ar    
  17 C17           -5.8369    -2.2071     0.0476 C.ar    
  18 C18           -4.6839    -1.4411     0.0467 C.ar    
  19 C19            4.0862     5.1373    -1.4016 C.3     
  20 C20            2.5631     5.9948     0.3837 C.3     
  21 C21            4.6712     4.8062     1.0047 C.3     
  22 Cl22          -7.3965    -1.4448     0.0660 Cl      
  23 H23           -0.9539     1.9131     0.0170 H       
  24 H24            1.2833    -1.7522    -0.0192 H       
  25 H25            4.4310     2.0918    -0.0287 H       
  26 H26           -2.4859    -4.0221     0.0048 H       
  27 H27           -6.6310    -4.1882     0.0453 H       
  28 H28           -4.7354    -0.3623     0.0527 H       
  29 H29            3.2683     5.1817    -2.1207 H       
  30 H30            4.6214     6.0869    -1.4011 H       
  31 H31            4.7701     4.3349    -1.6783 H       
  32 H32            2.1620     5.8033     1.3789 H       
  33 H33            3.0984     6.9444     0.3842 H       
  34 H34            1.7452     6.0392    -0.3354 H       
  35 H35            5.3551     4.0038     0.7280 H       
  36 H36            5.2064     5.7558     1.0053 H       
  37 H37            4.2700     4.6147     1.9999 H       
@<TRIPOS>BOND
   1    1    2 2
   2    1    6 1
   3    1   23 1
   4    2    3 1
   5    2   11 1
   6    3    4 2
   7    3   24 1
   8    4    5 1
   9    5    6 1
  10    5    7 2
  11    6    9 1
  12    7    8 1
  13    7   25 1
  14    8    9 2
  15    8   10 1
  16   10   19 1
  17   10   20 1
  18   10   21 1
  19   11   12 3
  20   12   13 1
  21   13   14 ar
  22   13   18 ar
  23   14   15 ar
  24   14   26 1
  25   15   16 ar
  26   16   17 ar
  27   16   27 1
  28   17   18 ar
  29   17   22 1
  30   18   28 1
  31   19   29 1
  32   19   30 1
  33   19   31 1
  34   20   32 1
  35   20   33 1
  36   20   34 1
  37   21   35 1
  38   21   36 1
  39   21   37 1

#	End of record

