#	Name: ASD01209097
#	Creating user name:	WinNT
#	Creation time:	15. 06. 2019 19:10

#	Modifying user name:	WinNT
#	Modification time:	15. 06. 2019 19:10

#	Program:	/corina/corina34_cracker 3.40 0067  02.08.2006

@<TRIPOS>MOLECULE
ASD01209097
  61   63    0    0    0
SMALL
NO_CHARGES


@<TRIPOS>ATOM
   1 C1             0.0597     1.1608     0.4669 C.3     
   2 C2             2.2149    -1.2727    -3.6940 C.ar    
   3 S3             0.2513    -0.6382     0.3350 S.o2    
   4 O4             1.2123    -1.1072     1.2709 O.2     
   5 O5            -1.0168    -1.2670     0.2097 O.2     
   6 C6             2.8686    -1.4839    -5.0353 C.3     
   7 C7             2.4493    -0.3847    -5.9771 C.2     
   8 N8             3.0003    -0.3022    -7.2044 N.am    
   9 O9             1.6161     0.4256    -5.6307 O.2     
  10 C10            2.4370    -2.8364    -5.6056 C.3     
  11 C11            2.9633    -3.9592    -4.7094 C.3     
  12 C12            2.4359    -5.3181    -5.2023 C.3     
  13 C13            3.6727    -6.1636    -5.5702 C.3     
  14 C14            4.8201    -5.5411    -4.7365 C.3     
  15 C15            4.5021    -4.0264    -4.7950 C.3     
  16 C16            2.9937    -1.0981    -2.5653 C.ar    
  17 C17            2.3941    -0.9048    -1.3349 C.ar    
  18 C18            1.0156    -0.8852    -1.2333 C.ar    
  19 C19            0.2368    -1.0598    -2.3619 C.ar    
  20 C20            0.8365    -1.2479    -3.5931 C.ar    
  21 C21            2.5454     0.6513    -8.1077 C.2     
  22 S22            1.2991     1.7795    -7.7962 S.3     
  23 P23            4.2248     3.3160   -11.4164 P.3     
  24 O24            5.3257     2.8361   -10.5515 O.2     
  25 O25            3.6545     4.7059   -10.8377 O.3     
  26 O26            4.7771     3.5436   -12.9115 O.3     
  27 C27            5.8973     4.3795   -13.2086 C.3     
  28 C28            6.1528     4.3730   -14.7171 C.3     
  29 C29            1.4863     2.4491    -9.4149 C.2     
  30 C30            2.4559     1.7722   -10.0331 C.2     
  31 N31            3.0082     0.8184    -9.3069 N.2     
  32 C32            2.8891     2.0757   -11.4443 C.3     
  33 H33            1.0393     1.6355     0.4124 H       
  34 H34           -0.5644     1.5206    -0.3511 H       
  35 H35           -0.4111     1.4072     1.4186 H       
  36 H36            3.9522    -1.4681    -4.9179 H       
  37 H37            3.7142    -0.9082    -7.4572 H       
  38 H38            1.3488    -2.8833    -5.6456 H       
  39 H39            2.8429    -2.9532    -6.6105 H       
  40 H40            2.6530    -3.7900    -3.6783 H       
  41 H41            1.8704    -5.8088    -4.4101 H       
  42 H42            1.8051    -5.1777    -6.0800 H       
  43 H43            3.5194    -7.2058    -5.2899 H       
  44 H44            3.8875    -6.0818    -6.6357 H       
  45 H45            4.7908    -5.9026    -3.7086 H       
  46 H46            5.7872    -5.7508    -5.1934 H       
  47 H47            4.8509    -3.5994    -5.7353 H       
  48 H48            4.9542    -3.5087    -3.9489 H       
  49 H49            4.0707    -1.1134    -2.6448 H       
  50 H50            3.0026    -0.7691    -0.4530 H       
  51 H51           -0.8402    -1.0448    -2.2824 H       
  52 H52            0.2280    -1.3843    -4.4749 H       
  53 H53            2.9288     5.0797   -11.3561 H       
  54 H54            5.6882     5.3976   -12.8799 H       
  55 H55            6.7789     4.0039   -12.6891 H       
  56 H56            5.2712     4.7486   -15.2365 H       
  57 H57            7.0073     5.0106   -14.9437 H       
  58 H58            6.3618     3.3549   -15.0458 H       
  59 H59            0.9159     3.2650    -9.8337 H       
  60 H60            2.0421     2.4664   -12.0082 H       
  61 H61            3.2507     1.1629   -11.9176 H       
@<TRIPOS>BOND
   1    1    3 1
   2    1   33 1
   3    1   34 1
   4    1   35 1
   5    2    6 1
   6    2   16 ar
   7    2   20 ar
   8    3    4 2
   9    3    5 2
  10    3   18 1
  11    6    7 1
  12    6   10 1
  13    6   36 1
  14    7    8 am
  15    7    9 2
  16    8   21 1
  17    8   37 1
  18   10   11 1
  19   10   38 1
  20   10   39 1
  21   11   12 1
  22   11   15 1
  23   11   40 1
  24   12   13 1
  25   12   41 1
  26   12   42 1
  27   13   14 1
  28   13   43 1
  29   13   44 1
  30   14   15 1
  31   14   45 1
  32   14   46 1
  33   15   47 1
  34   15   48 1
  35   16   17 ar
  36   16   49 1
  37   17   18 ar
  38   17   50 1
  39   18   19 ar
  40   19   20 ar
  41   19   51 1
  42   20   52 1
  43   21   22 1
  44   21   31 2
  45   22   29 1
  46   23   24 2
  47   23   25 1
  48   23   26 1
  49   23   32 1
  50   25   53 1
  51   26   27 1
  52   27   28 1
  53   27   54 1
  54   27   55 1
  55   28   56 1
  56   28   57 1
  57   28   58 1
  58   29   30 2
  59   29   59 1
  60   30   31 1
  61   30   32 1
  62   32   60 1
  63   32   61 1

#	End of record

