#	Name: ASD04880219
#	Creating user name:	WinNT
#	Creation time:	15. 06. 2019 20:53

#	Modifying user name:	WinNT
#	Modification time:	15. 06. 2019 20:53

#	Program:	/corina/corina34_cracker 3.40 0067  02.08.2006

@<TRIPOS>MOLECULE
ASD04880219
  45   48    0    0    0
SMALL
NO_CHARGES


@<TRIPOS>ATOM
   1 C1            -0.0284     1.4063    -0.1989 C.ar    
   2 C2            -0.0050     0.0076    -0.1772 C.ar    
   3 C3             1.2170    -0.6725    -0.2188 C.ar    
   4 C4             2.3870     0.0288    -0.2801 C.ar    
   5 C5             2.3638     1.4278    -0.3018 C.ar    
   6 C6             1.1414     2.1079    -0.2606 C.ar    
   7 C7            -1.2666    -0.7489    -0.1101 C.2     
   8 N8            -2.4453    -0.2280    -0.0678 N.2     
   9 N9            -3.4780    -1.1615    -0.0085 N.am    
  10 C10           -2.8980    -2.5139    -0.0117 C.3     
  11 C11           -1.3800    -2.2565    -0.0867 C.3     
  12 C12           -4.7935    -0.8729     0.0439 C.2     
  13 C13           -5.2377     0.5312     0.1674 C.ar    
  14 O14           -5.6149    -1.7678    -0.0106 O.2     
  15 C15           -6.5940     0.8475     0.0781 C.ar    
  16 C16           -7.0022     2.1627     0.1951 C.ar    
  17 C17           -6.0675     3.1647     0.3999 C.ar    
  18 C18           -4.7219     2.8556     0.4890 C.ar    
  19 C19           -4.3025     1.5461     0.3797 C.ar    
  20 C20            3.5907     2.1635    -0.3656 C.1     
  21 C21            4.5966     2.7666    -0.4179 C.1     
  22 C22            5.8235     3.5023    -0.4818 C.ar    
  23 C23            5.8042     4.8996    -0.5036 C.ar    
  24 C24            6.9899     5.6013    -0.5647 C.ar    
  25 C25            8.1967     4.9252    -0.6047 C.ar    
  26 C26            8.2238     3.5418    -0.5839 C.ar    
  27 C27            7.0465     2.8266    -0.5167 C.ar    
  28 F28           -8.3146     2.4718     0.1091 F       
  29 H29           -0.9719     1.9310    -0.1713 H       
  30 H30            1.2349    -1.7523    -0.2020 H       
  31 H31            3.3303    -0.4962    -0.3115 H       
  32 H32            1.1233     3.1876    -0.2773 H       
  33 H33           -3.1556    -3.0439     0.9052 H       
  34 H34           -3.2326    -3.0726    -0.8858 H       
  35 H35           -0.9631    -2.6903    -0.9957 H       
  36 H36           -0.8800    -2.6589     0.7943 H       
  37 H37           -7.3227     0.0666    -0.0822 H       
  38 H38           -6.3906     4.1913     0.4901 H       
  39 H39           -3.9983     3.6413     0.6488 H       
  40 H40           -3.2516     1.3072     0.4495 H       
  41 H41            4.8631     5.4286    -0.4731 H       
  42 H42            6.9766     6.6811    -0.5816 H       
  43 H43            9.1221     5.4800    -0.6528 H       
  44 H44            9.1694     3.0210    -0.6161 H       
  45 H45            7.0691     1.7469    -0.5004 H       
@<TRIPOS>BOND
   1    1    2 ar
   2    1    6 ar
   3    1   29 1
   4    2    3 ar
   5    2    7 1
   6    3    4 ar
   7    3   30 1
   8    4    5 ar
   9    4   31 1
  10    5    6 ar
  11    5   20 1
  12    6   32 1
  13    7    8 2
  14    7   11 1
  15    8    9 1
  16    9   10 1
  17    9   12 am
  18   10   11 1
  19   10   33 1
  20   10   34 1
  21   11   35 1
  22   11   36 1
  23   12   13 1
  24   12   14 2
  25   13   15 ar
  26   13   19 ar
  27   15   16 ar
  28   15   37 1
  29   16   17 ar
  30   16   28 1
  31   17   18 ar
  32   17   38 1
  33   18   19 ar
  34   18   39 1
  35   19   40 1
  36   20   21 3
  37   21   22 1
  38   22   23 ar
  39   22   27 ar
  40   23   24 ar
  41   23   41 1
  42   24   25 ar
  43   24   42 1
  44   25   26 ar
  45   25   43 1
  46   26   27 ar
  47   26   44 1
  48   27   45 1

#	End of record

