#	Name: ASD01200329
#	Creating user name:	WinNT
#	Creation time:	15. 06. 2019 19:08

#	Modifying user name:	WinNT
#	Modification time:	15. 06. 2019 19:08

#	Program:	/corina/corina34_cracker 3.40 0067  02.08.2006

@<TRIPOS>MOLECULE
ASD01200329
  44   47    0    0    0
SMALL
NO_CHARGES


@<TRIPOS>ATOM
   1 C1            -0.0167     1.3780     0.0096 C.ar    
   2 C2             0.0021    -0.0041     0.0020 C.ar    
   3 C3             1.2093    -0.6791    -0.0131 C.ar    
   4 C4             2.3974     0.0294    -0.0206 C.ar    
   5 C5             2.3776     1.4114    -0.0130 C.ar    
   6 C6             1.1709     2.0856     0.0021 C.ar    
   7 C7             1.1499     3.5924     0.0103 C.3     
   8 C8             1.8759     4.1058     1.2555 C.3     
   9 C9             1.8415     4.1112    -1.2240 C.2     
  10 C10            1.7473     5.6286     1.3293 C.3     
  11 C11            0.4619     7.4438     2.2831 C.3     
  12 C12            0.2906     6.0340     1.6649 C.3     
  13 C13            2.5753     6.1838     2.5066 C.3     
  14 C14            1.7580     7.3380     3.1130 C.3     
  15 C15            1.2245     4.4612    -2.3635 C.2     
  16 N16            3.1918     4.3011    -1.3475 N.pl3   
  17 C17            2.2661     4.9053    -3.2913 C.ar    
  18 C18            2.2648     5.3817    -4.6045 C.ar    
  19 C19            3.4865     4.7841    -2.5998 C.ar    
  20 N20            4.6208     5.1222    -3.1989 N.ar    
  21 C21            4.6419     5.5703    -4.4359 C.ar    
  22 C22            3.4782     5.7143    -5.1762 C.ar    
  23 Br23           1.2357    -2.5699    -0.0229 Br      
  24 H24           -0.9593     1.9051     0.0169 H       
  25 H25           -0.9257    -0.5568     0.0082 H       
  26 H26            3.3402    -0.4972    -0.0321 H       
  27 H27            3.3052     1.9647    -0.0185 H       
  28 H28            0.1173     3.9414     0.0221 H       
  29 H29            1.4309     3.6600     2.1451 H       
  30 H30            2.9296     3.8323     1.2003 H       
  31 H31            2.0655     6.0833     0.3912 H       
  32 H32            0.5709     8.1933     1.4993 H       
  33 H33           -0.3846     7.6836     2.9265 H       
  34 H34           -0.3157     6.0800     0.7602 H       
  35 H35           -0.1451     5.3452     2.3886 H       
  36 H36            2.7322     5.4050     3.2529 H       
  37 H37            3.5347     6.5548     2.1461 H       
  38 H38            2.3208     8.2691     3.0468 H       
  39 H39            1.5182     7.1193     4.1536 H       
  40 H40            0.1630     4.4222    -2.5587 H       
  41 H41            3.8445     4.1216    -0.6528 H       
  42 H42            1.3427     5.4867    -5.1569 H       
  43 H43            5.5881     5.8340    -4.8848 H       
  44 H44            3.5195     6.0862    -6.1893 H       
@<TRIPOS>BOND
   1    1    2 ar
   2    1    6 ar
   3    1   24 1
   4    2    3 ar
   5    2   25 1
   6    3    4 ar
   7    3   23 1
   8    4    5 ar
   9    4   26 1
  10    5    6 ar
  11    5   27 1
  12    6    7 1
  13    7    8 1
  14    7    9 1
  15    7   28 1
  16    8   10 1
  17    8   29 1
  18    8   30 1
  19    9   16 1
  20    9   15 2
  21   10   13 1
  22   10   12 1
  23   10   31 1
  24   11   12 1
  25   11   14 1
  26   11   32 1
  27   11   33 1
  28   12   34 1
  29   12   35 1
  30   13   14 1
  31   13   36 1
  32   13   37 1
  33   14   38 1
  34   14   39 1
  35   15   17 1
  36   15   40 1
  37   16   19 1
  38   16   41 1
  39   17   19 ar
  40   17   18 ar
  41   18   22 ar
  42   18   42 1
  43   19   20 ar
  44   20   21 ar
  45   21   22 ar
  46   21   43 1
  47   22   44 1

#	End of record

