#	Name: ASD08070246
#	Creating user name:	WinNT
#	Creation time:	15. 06. 2019 21:14

#	Modifying user name:	WinNT
#	Modification time:	15. 06. 2019 21:14

#	Program:	/corina/corina34_cracker 3.40 0067  02.08.2006

@<TRIPOS>MOLECULE
ASD08070246
  35   37    0    0    0
SMALL
NO_CHARGES


@<TRIPOS>ATOM
   1 N1            -0.0171     1.3440    -0.0042 N.am    
   2 C2             0.0018    -0.0036    -0.0036 C.2     
   3 O3             1.0631    -0.5968    -0.0147 O.2     
   4 N4            -1.1558    -0.6938     0.0094 N.am    
   5 C5            -1.1402    -2.0885    -0.1039 C.ar    
   6 C6            -2.0781    -2.8525     0.5781 C.ar    
   7 C7            -2.0600    -4.2289     0.4642 C.ar    
   8 C8             1.1483     2.2339    -0.0173 C.3     
   9 C9            -0.1904    -2.7111    -0.9030 C.ar    
  10 C10           -0.1776    -4.0878    -1.0127 C.ar    
  11 C11           -1.1090    -4.8462    -0.3274 C.ar    
  12 C12           -1.0919    -6.3482    -0.4490 C.3     
  13 C13            0.6409     3.6538    -0.0127 C.ar    
  14 C14           -0.7395     3.6345     0.0023 C.ar    
  15 C15           -1.2070     2.2010     0.0018 C.3     
  16 C16            1.3149     4.8631    -0.0207 C.ar    
  17 C17            0.6083     6.0502    -0.0133 C.ar    
  18 C18           -0.7741     6.0308     0.0017 C.ar    
  19 C19           -1.4471     4.8244     0.0088 C.ar    
  20 H20           -1.9998    -0.2237     0.0972 H       
  21 H21           -2.8206    -2.3710     1.1971 H       
  22 H22           -2.7891    -4.8236     0.9943 H       
  23 H23            1.7584     2.0567     0.8684 H       
  24 H24            1.7391     2.0557    -0.9158 H       
  25 H25            0.5374    -2.1194    -1.4384 H       
  26 H26            0.5607    -4.5726    -1.6343 H       
  27 H27           -0.4496    -6.7680     0.3252 H       
  28 H28           -2.1043    -6.7339    -0.3298 H       
  29 H29           -0.7092    -6.6289    -1.4302 H       
  30 H30           -1.8120     2.0100    -0.8846 H       
  31 H31           -1.7926     2.0030     0.8995 H       
  32 H32            2.3947     4.8785    -0.0324 H       
  33 H33            1.1354     6.9928    -0.0189 H       
  34 H34           -1.3274     6.9583     0.0074 H       
  35 H35           -2.5269     4.8095     0.0205 H       
@<TRIPOS>BOND
   1    1    2 am
   2    1    8 1
   3    1   15 1
   4    2    3 2
   5    2    4 am
   6    4    5 1
   7    4   20 1
   8    5    6 ar
   9    5    9 ar
  10    6    7 ar
  11    6   21 1
  12    7   11 ar
  13    7   22 1
  14    8   13 1
  15    8   23 1
  16    8   24 1
  17    9   10 ar
  18    9   25 1
  19   10   11 ar
  20   10   26 1
  21   11   12 1
  22   12   27 1
  23   12   28 1
  24   12   29 1
  25   13   14 ar
  26   13   16 ar
  27   14   15 1
  28   14   19 ar
  29   15   30 1
  30   15   31 1
  31   16   17 ar
  32   16   32 1
  33   17   18 ar
  34   17   33 1
  35   18   19 ar
  36   18   34 1
  37   19   35 1

#	End of record

