#	Name: ASD01917250
#	Creating user name:	WinNT
#	Creation time:	15. 06. 2019 20:08

#	Modifying user name:	WinNT
#	Modification time:	15. 06. 2019 20:08

#	Program:	/corina/corina34_cracker 3.40 0067  02.08.2006

@<TRIPOS>MOLECULE
ASD01917250
  31   33    0    0    0
SMALL
NO_CHARGES


@<TRIPOS>ATOM
   1 C1            -0.0167     1.3802     0.0096 C.ar    
   2 C2             0.0021    -0.0041     0.0020 C.ar    
   3 C3            -1.1857    -0.7109     0.0095 C.ar    
   4 C4            -2.3920    -0.0361     0.0242 C.ar    
   5 C5            -2.4120     1.3464     0.0318 C.ar    
   6 C6            -1.2257     2.0550     0.0306 C.ar    
   7 C7            -3.7279     2.0806     0.0472 C.3     
   8 O8            -4.1321     2.3054     1.3993 O.3     
   9 C9            -5.3079     2.9613     1.5913 C.2     
  10 N10           -6.1032     3.4050     0.6397 N.2     
  11 N11           -7.2018     4.0165     1.2288 N.pl3   
  12 C12           -7.0457     3.9299     2.5949 C.2     
  13 C13           -5.8764     3.2714     2.8348 C.2     
  14 C14           -8.3682     4.6648     0.6282 C.3     
  15 C15           -9.5660     4.5131     1.5655 C.3     
  16 N16           -9.2424     4.8364     2.9497 N.am    
  17 C17           -8.0552     4.4942     3.5070 C.2     
  18 O18           -7.8357     4.6448     4.6938 O.2     
  19 F19            1.1437     2.0720     0.0023 F       
  20 H20            0.9445    -0.5315    -0.0101 H       
  21 H21           -1.1713    -1.7907     0.0036 H       
  22 H22           -3.3196    -0.5892     0.0293 H       
  23 H23           -1.2416     3.1349     0.0368 H       
  24 H24           -3.6161     3.0376    -0.4625 H       
  25 H25           -4.4833     1.4831    -0.4632 H       
  26 H26           -5.4611     3.0377     3.8040 H       
  27 H27           -8.1577     5.7232     0.4748 H       
  28 H28           -8.5932     4.1950    -0.3292 H       
  29 H29          -10.3636     5.1744     1.2269 H       
  30 H30           -9.9214     3.4838     1.5184 H       
  31 H31           -9.8960     5.3101     3.4876 H       
@<TRIPOS>BOND
   1    1    2 ar
   2    1   19 1
   3    1    6 ar
   4    2    3 ar
   5    2   20 1
   6    3    4 ar
   7    3   21 1
   8    4    5 ar
   9    4   22 1
  10    5    6 ar
  11    5    7 1
  12    6   23 1
  13    7    8 1
  14    7   24 1
  15    7   25 1
  16    8    9 1
  17    9   10 2
  18    9   13 1
  19   10   11 1
  20   11   12 1
  21   11   14 1
  22   12   13 2
  23   12   17 1
  24   13   26 1
  25   14   15 1
  26   14   27 1
  27   14   28 1
  28   15   16 1
  29   15   29 1
  30   15   30 1
  31   16   17 am
  32   16   31 1
  33   17   18 2

#	End of record

