#	Name: ASD02039004
#	Creating user name:	WinNT
#	Creation time:	15. 06. 2019 20:17

#	Modifying user name:	WinNT
#	Modification time:	15. 06. 2019 20:17

#	Program:	/corina/corina34_cracker 3.40 0067  02.08.2006

@<TRIPOS>MOLECULE
ASD02039004
  43   46    0    0    0
SMALL
NO_CHARGES


@<TRIPOS>ATOM
   1 N1            -0.0154     1.2823     0.0091 N.2     
   2 N2             0.0021    -0.0041     0.0020 N.2     
   3 C3             1.2155     1.7327    -0.0002 C.2     
   4 O4             2.0320     0.6629    -0.0138 O.3     
   5 C5             1.2335    -0.4225    -0.0120 C.2     
   6 N6             1.6029     3.0599     0.0032 N.pl3   
   7 C7             1.2700     5.4636     0.0197 C.ar    
   8 C8             1.6853    -1.8601    -0.0233 C.3     
   9 O9             1.8159    -2.3078    -1.3740 O.3     
  10 C10            2.2184    -3.5929    -1.5623 C.ar    
  11 C11            2.3657    -4.0921    -2.8486 C.ar    
  12 C12            2.4870    -4.4024    -0.4685 C.ar    
  13 C13            2.8960    -5.7079    -0.6586 C.ar    
  14 C14            3.0380    -6.2096    -1.9450 C.ar    
  15 C15            2.7741    -5.3966    -3.0397 C.ar    
  16 C16            1.5734     6.0941    -1.1714 C.ar    
  17 C17            1.5933     6.0862     1.2163 C.ar    
  18 C18            2.2123     7.3250     1.1694 C.ar    
  19 C19            2.4855     7.8959    -0.0614 C.ar    
  20 N20            2.1637     7.2737    -1.1796 N.ar    
  21 Cl21           3.2602     9.4477    -0.1349 Cl      
  22 N22            3.4520    -7.5327    -2.1418 N.am    
  23 C23            3.9456    -7.9228    -3.3314 C.2     
  24 C24            4.0805    -6.9444    -4.4669 C.3     
  25 C25            2.9283    -5.9444    -4.4347 C.3     
  26 O26            4.2861    -9.0761    -3.4900 O.2     
  27 C27            0.5904     4.1185     0.0191 C.3     
  28 H28            2.5452     3.2900    -0.0049 H       
  29 H29            2.6479    -1.9425     0.4815 H       
  30 H30            0.9499    -2.4762     0.4942 H       
  31 H31            2.1605    -3.4601    -3.7000 H       
  32 H32            2.3766    -4.0116     0.5322 H       
  33 H33            3.1056    -6.3378     0.1932 H       
  34 H34            1.3246     5.6155    -2.1070 H       
  35 H35            1.3676     5.6166     2.1623 H       
  36 H36            2.4779     7.8386     2.0816 H       
  37 H37            3.3828    -8.1723    -1.4158 H       
  38 H38            5.0243    -6.4075    -4.3720 H       
  39 H39            4.0665    -7.4845    -5.4136 H       
  40 H40            2.0057    -6.4437    -4.7307 H       
  41 H41            3.1368    -5.1278    -5.1260 H       
  42 H42           -0.0409     4.0308    -0.8651 H       
  43 H43           -0.0232     4.0210     0.9147 H       
@<TRIPOS>BOND
   1    1    2 1
   2    1    3 2
   3    2    5 2
   4    3    4 1
   5    3    6 1
   6    4    5 1
   7    5    8 1
   8    6   27 1
   9    6   28 1
  10    7   16 ar
  11    7   17 ar
  12    7   27 1
  13    8    9 1
  14    8   29 1
  15    8   30 1
  16    9   10 1
  17   10   11 ar
  18   10   12 ar
  19   11   15 ar
  20   11   31 1
  21   12   13 ar
  22   12   32 1
  23   13   14 ar
  24   13   33 1
  25   14   15 ar
  26   14   22 1
  27   15   25 1
  28   16   20 ar
  29   16   34 1
  30   17   18 ar
  31   17   35 1
  32   18   19 ar
  33   18   36 1
  34   19   20 ar
  35   19   21 1
  36   22   23 am
  37   22   37 1
  38   23   24 1
  39   23   26 2
  40   24   25 1
  41   24   38 1
  42   24   39 1
  43   25   40 1
  44   25   41 1
  45   27   42 1
  46   27   43 1

#	End of record

