#	Name: ASD08170088
#	Creating user name:	WinNT
#	Creation time:	15. 06. 2019 21:17

#	Modifying user name:	WinNT
#	Modification time:	15. 06. 2019 21:17

#	Program:	/corina/corina34_cracker 3.40 0067  02.08.2006

@<TRIPOS>MOLECULE
ASD08170088
  64   69    0    0    0
SMALL
NO_CHARGES


@<TRIPOS>ATOM
   1 N1            -0.0150     1.2583     0.0090 N.2     
   2 N2             0.0021    -0.0041     0.0020 N.2     
   3 C3             1.1271     1.8769     0.0014 C.2     
   4 S4             2.3826     0.7116    -0.0169 S.3     
   5 C5             1.1681    -0.5677    -0.0121 C.2     
   6 C6             1.4387    -2.0502    -0.0227 C.3     
   7 C7             1.5165    -2.5442    -1.4687 C.3     
   8 C8             1.8690    -4.5432    -2.9254 C.3     
   9 C9             2.1395    -6.0257    -2.9359 C.2     
  10 N10            1.2478    -6.9651    -2.9329 N.2     
  11 S11            3.7275    -6.7933    -2.9623 S.3     
  12 C12            2.9647    -8.3272    -2.9581 C.2     
  13 N13            1.6777    -8.1521    -2.9433 N.2     
  14 N14            3.6154    -9.5562    -2.9730 N.am    
  15 C15            2.8993   -10.6980    -2.9678 C.2     
  16 O16            1.6874   -10.6536    -2.9501 O.2     
  17 C17            3.6044   -12.0297    -2.9839 C.3     
  18 N18            1.3017     3.2566     0.0067 N.am    
  19 C19            0.2284     4.0717     0.0214 C.2     
  20 C20            0.4176     5.5667     0.0272 C.3     
  21 O21           -0.8897     3.6019     0.0299 O.2     
  22 C22            1.7912    -4.0493    -1.4794 C.3     
  23 C23            2.5684   -13.1555    -2.9740 C.3     
  24 C24           -0.9494     6.2538     0.0441 C.3     
  25 O25           -0.7972     7.6803     0.1673 O.3     
  26 O26            1.8793   -13.2202    -4.2366 O.3     
  27 C27           -1.8168     8.2199    -0.5623 C.ar    
  28 C28           -2.3191     7.2416    -1.4168 C.ar    
  29 O29           -1.6141     6.0890    -1.2225 O.3     
  30 O30            3.2155   -14.4377    -2.8715 O.3     
  31 C31            2.4470   -15.2935    -3.6066 C.ar    
  32 C32            1.6256   -14.5449    -4.4459 C.ar    
  33 C33           -2.3696     9.4903    -0.5687 C.ar    
  34 C34           -3.4172     9.7846    -1.4213 C.ar    
  35 C35           -3.9158     8.8134    -2.2696 C.ar    
  36 C36           -3.3691     7.5437    -2.2686 C.ar    
  37 C37            2.3779   -16.6771    -3.6296 C.ar    
  38 C38            1.4954   -17.3116    -4.4837 C.ar    
  39 C39            0.6799   -16.5684    -5.3169 C.ar    
  40 C40            0.7441   -15.1877    -5.3000 C.ar    
  41 H41            2.3843    -2.2506     0.4811 H       
  42 H42            0.6334    -2.5702     0.4961 H       
  43 H43            0.5709    -2.3438    -1.9724 H       
  44 H44            2.3218    -2.0242    -1.9874 H       
  45 H45            2.6743    -4.0232    -3.4441 H       
  46 H46            0.9234    -4.3429    -3.4291 H       
  47 H47            4.5846    -9.5917    -2.9871 H       
  48 H48            4.2156   -12.1064    -3.8831 H       
  49 H49            4.2413   -12.1143    -2.1034 H       
  50 H50            2.1959     3.6323    -0.0001 H       
  51 H51            0.9817     5.8582     0.9132 H       
  52 H52            0.9643     5.8672    -0.8667 H       
  53 H53            2.7368    -4.2496    -0.9756 H       
  54 H54            0.9858    -4.5693    -0.9606 H       
  55 H55            1.8615   -13.0168    -2.1559 H       
  56 H56           -1.5634     5.8626     0.8552 H       
  57 H57           -1.9822    10.2509     0.0929 H       
  58 H58           -3.8474    10.7752    -1.4245 H       
  59 H59           -4.7343     9.0471    -2.9343 H       
  60 H60           -3.7606     6.7870    -2.9323 H       
  61 H61            3.0140   -17.2601    -2.9801 H       
  62 H62            1.4431   -18.3902    -4.5005 H       
  63 H63           -0.0080   -17.0678    -5.9831 H       
  64 H64            0.1055   -14.6096    -5.9515 H       
@<TRIPOS>BOND
   1    1    2 1
   2    1    3 2
   3    2    5 2
   4    3    4 1
   5    3   18 1
   6    4    5 1
   7    5    6 1
   8    6    7 1
   9    6   41 1
  10    6   42 1
  11    7   22 1
  12    7   43 1
  13    7   44 1
  14    8    9 1
  15    8   22 1
  16    8   45 1
  17    8   46 1
  18    9   10 2
  19    9   11 1
  20   10   13 1
  21   11   12 1
  22   12   13 2
  23   12   14 1
  24   14   15 am
  25   14   47 1
  26   15   16 2
  27   15   17 1
  28   17   23 1
  29   17   48 1
  30   17   49 1
  31   18   19 am
  32   18   50 1
  33   19   20 1
  34   19   21 2
  35   20   24 1
  36   20   51 1
  37   20   52 1
  38   22   53 1
  39   22   54 1
  40   23   30 1
  41   23   26 1
  42   23   55 1
  43   24   25 1
  44   24   29 1
  45   24   56 1
  46   25   27 1
  47   26   32 1
  48   27   28 ar
  49   27   33 ar
  50   28   29 1
  51   28   36 ar
  52   30   31 1
  53   31   32 ar
  54   31   37 ar
  55   32   40 ar
  56   33   34 ar
  57   33   57 1
  58   34   35 ar
  59   34   58 1
  60   35   36 ar
  61   35   59 1
  62   36   60 1
  63   37   38 ar
  64   37   61 1
  65   38   39 ar
  66   38   62 1
  67   39   40 ar
  68   39   63 1
  69   40   64 1

#	End of record

