#	Name: ASD04590266
#	Creating user name:	WinNT
#	Creation time:	15. 06. 2019 20:50

#	Modifying user name:	WinNT
#	Modification time:	15. 06. 2019 20:50

#	Program:	/corina/corina34_cracker 3.40 0067  02.08.2006

@<TRIPOS>MOLECULE
ASD04590266
  42   45    0    0    0
SMALL
NO_CHARGES


@<TRIPOS>ATOM
   1 C1            -0.0157     1.3069     0.0092 C.2     
   2 N2             0.0021    -0.0041     0.0020 N.2     
   3 N3             1.2661     1.7876    -0.0004 N.pl3   
   4 C4             2.1124     0.6949    -0.0144 C.ar    
   5 C5             1.2849    -0.4421    -0.0126 C.ar    
   6 C6             3.4917     0.5471    -0.0279 C.ar    
   7 C7             4.0468    -0.7154    -0.0396 C.ar    
   8 C8             3.2353    -1.8408    -0.0384 C.ar    
   9 C9             1.8649    -1.7144    -0.0254 C.ar    
  10 C10           -1.2358     2.1402     0.0198 C.2     
  11 N11           -1.2743     3.4582     0.0262 N.2     
  12 C12           -2.5674     1.6645     0.0186 C.2     
  13 C13           -3.3908     2.7410     0.0304 C.2     
  14 N14           -2.6166     3.8577     0.0353 N.pl3   
  15 N15           -2.9655     0.3174     0.0067 N.am    
  16 C16           -4.2759     0.0019     0.0070 C.2     
  17 C17           -4.7030    -1.4433    -0.0057 C.3     
  18 O18           -5.1114     0.8812     0.0174 O.2     
  19 C19           -6.2309    -1.5235    -0.0026 C.3     
  20 C20           -6.6645    -2.9908    -0.0155 C.3     
  21 C21           -6.1205    -3.6723    -1.2727 C.3     
  22 C22           -4.5926    -3.5920    -1.2757 C.3     
  23 C23           -4.1590    -2.1248    -1.2628 C.3     
  24 H24            1.5310     2.7207     0.0021 H       
  25 H25            4.1294     1.4187    -0.0297 H       
  26 H26            5.1208    -0.8289    -0.0502 H       
  27 H27            3.6825    -2.8238    -0.0480 H       
  28 H28            1.2396    -2.5950    -0.0243 H       
  29 H29           -4.4705     2.7157     0.0321 H       
  30 H30           -2.9379     4.7729     0.0435 H       
  31 H31           -2.2974    -0.3858    -0.0016 H       
  32 H32           -4.3110    -1.9458     0.8786 H       
  33 H33           -6.6184    -1.0380     0.8930 H       
  34 H34           -6.6229    -1.0210    -0.8869 H       
  35 H35           -6.2725    -3.4933     0.8687 H       
  36 H36           -7.7530    -3.0480    -0.0134 H       
  37 H37           -6.4294    -4.7176    -1.2819 H       
  38 H38           -6.5125    -3.1698    -2.1569 H       
  39 H39           -4.2006    -4.0945    -0.3915 H       
  40 H40           -4.2050    -4.0776    -2.1713 H       
  41 H41           -4.5510    -1.6223    -2.1471 H       
  42 H42           -3.0705    -2.0676    -1.2650 H       
@<TRIPOS>BOND
   1    1    2 2
   2    1    3 1
   3    1   10 1
   4    2    5 1
   5    3    4 1
   6    3   24 1
   7    4    5 ar
   8    4    6 ar
   9    5    9 ar
  10    6    7 ar
  11    6   25 1
  12    7    8 ar
  13    7   26 1
  14    8    9 ar
  15    8   27 1
  16    9   28 1
  17   10   11 2
  18   10   12 1
  19   11   14 1
  20   12   13 2
  21   12   15 1
  22   13   14 1
  23   13   29 1
  24   14   30 1
  25   15   16 am
  26   15   31 1
  27   16   17 1
  28   16   18 2
  29   17   19 1
  30   17   23 1
  31   17   32 1
  32   19   20 1
  33   19   33 1
  34   19   34 1
  35   20   21 1
  36   20   35 1
  37   20   36 1
  38   21   22 1
  39   21   37 1
  40   21   38 1
  41   22   23 1
  42   22   39 1
  43   22   40 1
  44   23   41 1
  45   23   42 1

#	End of record

