#	Name: ASD00842281
#	Creating user name:	WinNT
#	Creation time:	15. 06. 2019 18:44

#	Modifying user name:	WinNT
#	Modification time:	15. 06. 2019 18:44

#	Program:	/corina/corina34_cracker 3.40 0067  02.08.2006

@<TRIPOS>MOLECULE
ASD00842281
  97  102    0    0    0
SMALL
NO_CHARGES


@<TRIPOS>ATOM
   1 F1             6.0163    -1.7140    -2.1457 F       
   2 C2             0.9003     1.5157    -0.6777 C.ar    
   3 C3             1.2288     0.1764    -0.8276 C.ar    
   4 C4             1.2049    -0.6688     0.2726 C.ar    
   5 C5             0.8543    -0.1749     1.5139 C.ar    
   6 C6             0.5268     1.1606     1.6607 C.ar    
   7 C7             0.5502     2.0048     0.5662 C.ar    
   8 C8             1.5607    -2.1245     0.1132 C.3     
   9 C9             1.3409    -2.8695     1.4125 C.2     
  10 C10            0.7386    -2.7556    -1.0123 C.3     
  11 C11           -0.7278    -2.5216    -0.7553 C.2     
  12 N12           -1.6500    -3.0526    -1.5823 N.am    
  13 O13           -1.0780    -1.8553     0.1957 O.2     
  14 C14           -3.0753    -2.7377    -1.4150 C.3     
  15 C15           -3.8613    -4.0488    -1.3134 C.3     
  16 C16           -3.5492    -4.9216    -2.5312 C.3     
  17 C17           -2.0555    -5.2543    -2.5531 C.3     
  18 C18           -1.2486    -3.9525    -2.6721 C.3     
  19 N19           -4.3266    -6.1656    -2.4538 N.3     
  20 C20           -4.1434    -6.9773    -3.6651 C.3     
  21 C21           -4.9038    -8.2967    -3.5117 C.3     
  22 N22           -6.3274    -8.0145    -3.2806 N.3     
  23 C23           -6.5106    -7.2028    -2.0693 C.3     
  24 C24           -5.7502    -5.8835    -2.2227 C.3     
  25 C25           -7.1048    -9.2585    -3.2033 C.3     
  26 O26            0.2873    -2.9992     1.9992 O.2     
  27 N27            2.5321    -3.3606     1.7936 N.am    
  28 C28            3.0398    -2.2817    -0.1554 C.ar    
  29 C29            3.5502    -3.0336     0.8954 C.ar    
  30 C30            3.8583    -1.8399    -1.1707 C.ar    
  31 C31            5.2097    -2.1450    -1.1514 C.ar    
  32 C32            5.7311    -2.8948    -0.1079 C.ar    
  33 C33            4.9094    -3.3379     0.9106 C.ar    
  34 F34            7.0485    -3.1934    -0.0872 F       
  35 C35            2.5337    -5.9441     2.7423 C.ar    
  36 C36            1.2872    -6.3908     2.3294 C.ar    
  37 C37            3.5943    -6.8268     2.8122 C.ar    
  38 C38            3.4141    -8.1542     2.4707 C.ar    
  39 C39            2.1723    -8.6021     2.0587 C.ar    
  40 C40            1.1087    -7.7237     1.9875 C.ar    
  41 H41            2.0340    -9.6395     1.7924 H       
  42 O42            0.2423    -5.5246     2.2601 O.3     
  43 C43           -1.0121    -6.0545     1.8267 C.3     
  44 C44           -2.0594    -4.9392     1.8125 C.3     
  45 C45           -8.5546    -8.9321    -2.8393 C.3     
  46 C46           -7.0666    -9.9689    -4.5578 C.3     
  47 S47            2.7662    -4.2507     3.1702 S.o2    
  48 O48            4.1381    -4.1079     3.5120 O.2     
  49 O49            1.7059    -3.9107     4.0530 O.2     
  50 O50            1.5730    -0.3073    -2.0501 O.3     
  51 C51            1.9919    -0.0929    -4.4206 C.3     
  52 C52            1.4674     0.5910    -3.1564 C.3     
  53 H53            0.9225     2.1765    -1.5316 H       
  54 H54            0.8355    -0.8323     2.3705 H       
  55 H55            0.2522     1.5447     2.6320 H       
  56 H56            0.2940     3.0474     0.6834 H       
  57 H57            1.0175    -2.3030    -1.9638 H       
  58 H58            0.9346    -3.8273    -1.0484 H       
  59 H59           -3.2165    -2.1556    -0.5043 H       
  60 H60           -3.4268    -2.1666    -2.2743 H       
  61 H61           -3.5730    -4.5763    -0.4042 H       
  62 H62           -4.9291    -3.8316    -1.2856 H       
  63 H63           -3.8148    -4.3836    -3.4412 H       
  64 H64           -1.7842    -5.7705    -1.6322 H       
  65 H65           -1.8381    -5.8952    -3.4075 H       
  66 H66           -1.4522    -3.4831    -3.6346 H       
  67 H67           -0.1844    -4.1733    -2.5888 H       
  68 H68           -4.5279    -6.4342    -4.5284 H       
  69 H69           -3.0826    -7.1835    -3.8077 H       
  70 H70           -4.7931    -8.8880    -4.4206 H       
  71 H71           -4.5010    -8.8522    -2.6648 H       
  72 H72           -7.5714    -6.9967    -1.9267 H       
  73 H73           -6.1261    -7.7459    -1.2060 H       
  74 H74           -5.8609    -5.2921    -1.3138 H       
  75 H75           -6.1530    -5.3280    -3.0697 H       
  76 H76           -6.6761    -9.9081    -2.4401 H       
  77 H77            3.4473    -1.2565    -1.9813 H       
  78 H78            5.3219    -3.9212     1.7206 H       
  79 H79            4.5651    -6.4794     3.1337 H       
  80 H80            4.2445    -8.8425     2.5253 H       
  81 H81            0.1389    -8.0741     1.6664 H       
  82 H82           -0.9055    -6.4656     0.8229 H       
  83 H83           -1.3294    -6.8422     2.5101 H       
  84 H84           -2.1660    -4.5281     2.8164 H       
  85 H85           -1.7421    -4.1516     1.1291 H       
  86 H86           -3.0161    -5.3434     1.4819 H       
  87 H87           -9.1315    -9.8552    -2.7819 H       
  88 H88           -8.5818    -8.4261    -1.8742 H       
  89 H89           -8.9834    -8.2826    -3.6024 H       
  90 H90           -6.0338   -10.2014    -4.8171 H       
  91 H91           -7.6435   -10.8920    -4.5004 H       
  92 H92           -7.4954    -9.3193    -5.3209 H       
  93 H93            3.0073    -0.4489    -4.2464 H       
  94 H94            1.3488    -0.9368    -4.6705 H       
  95 H95            1.9931     0.6197    -5.2453 H       
  96 H96            0.4234     0.8691    -3.3003 H       
  97 H97            2.0573     1.4854    -2.9558 H       
@<TRIPOS>BOND
   1    1   31 1
   2    2    3 ar
   3    2    7 ar
   4    2   53 1
   5    3    4 ar
   6    3   50 1
   7    4    5 ar
   8    4    8 1
   9    5    6 ar
  10    5   54 1
  11    6    7 ar
  12    6   55 1
  13    7   56 1
  14    8    9 1
  15    8   10 1
  16    8   28 1
  17    9   26 2
  18    9   27 am
  19   10   11 1
  20   10   57 1
  21   10   58 1
  22   11   12 am
  23   11   13 2
  24   12   14 1
  25   12   18 1
  26   14   15 1
  27   14   59 1
  28   14   60 1
  29   15   16 1
  30   15   61 1
  31   15   62 1
  32   16   17 1
  33   16   19 1
  34   16   63 1
  35   17   18 1
  36   17   64 1
  37   17   65 1
  38   18   66 1
  39   18   67 1
  40   19   20 1
  41   19   24 1
  42   20   21 1
  43   20   68 1
  44   20   69 1
  45   21   22 1
  46   21   70 1
  47   21   71 1
  48   22   23 1
  49   22   25 1
  50   23   24 1
  51   23   72 1
  52   23   73 1
  53   24   74 1
  54   24   75 1
  55   25   45 1
  56   25   46 1
  57   25   76 1
  58   27   47 am
  59   27   29 1
  60   28   29 ar
  61   28   30 ar
  62   29   33 ar
  63   30   31 ar
  64   30   77 1
  65   31   32 ar
  66   32   33 ar
  67   32   34 1
  68   33   78 1
  69   35   36 ar
  70   35   37 ar
  71   35   47 1
  72   36   42 1
  73   36   40 ar
  74   37   38 ar
  75   37   79 1
  76   38   39 ar
  77   38   80 1
  78   39   40 ar
  79   39   41 1
  80   40   81 1
  81   42   43 1
  82   43   44 1
  83   43   82 1
  84   43   83 1
  85   44   84 1
  86   44   85 1
  87   44   86 1
  88   45   87 1
  89   45   88 1
  90   45   89 1
  91   46   90 1
  92   46   91 1
  93   46   92 1
  94   47   48 2
  95   47   49 2
  96   50   52 1
  97   51   52 1
  98   51   93 1
  99   51   94 1
 100   51   95 1
 101   52   96 1
 102   52   97 1

#	End of record

