#	Name: ASD01940434
#	Creating user name:	WinNT
#	Creation time:	15. 06. 2019 20:12

#	Modifying user name:	WinNT
#	Modification time:	15. 06. 2019 20:12

#	Program:	/corina/corina34_cracker 3.40 0067  02.08.2006

@<TRIPOS>MOLECULE
ASD01940434
  39   38    0    0    0
SMALL
NO_CHARGES


@<TRIPOS>ATOM
   1 C1            -0.0184     1.5028     0.0103 C.2     
   2 C2             0.0021    -0.0041     0.0020 C.3     
   3 C3            -0.5881    -0.5293     1.3123 C.3     
   4 O4             1.0197     2.1211     0.0037 O.2     
   5 O5            -1.1898     2.1580     0.0194 O.3     
   6 O6             1.3494    -0.4614    -0.1307 O.3     
   7 Si7            1.4913    -1.8932    -0.8990 Si      
   8 C8             0.5577    -3.1998     0.0453 C.3     
   9 C9             0.7882    -1.7478    -2.6181 C.3     
  10 C10            3.2900    -2.3672    -1.0018 C.3     
  11 C11            3.8674    -2.4866     0.4101 C.3     
  12 C12            3.4231    -3.7103    -1.7225 C.3     
  13 C13            4.0567    -1.2941    -1.7773 C.3     
  14 C14           -1.1335     3.6089     0.0270 C.3     
  15 C15           -2.5551     4.1744     0.0369 C.3     
  16 H16           -0.5904    -0.3709    -0.8362 H       
  17 H17           -1.6158    -0.1805     1.4135 H       
  18 H18           -0.5733    -1.6192     1.3063 H       
  19 H19            0.0044    -0.1625     2.1504 H       
  20 H20           -0.4948    -2.9225     0.1054 H       
  21 H21            0.6525    -4.1567    -0.4681 H       
  22 H22            0.9690    -3.2849     1.0511 H       
  23 H23            1.3344    -0.9833    -3.1706 H       
  24 H24            0.8830    -2.7046    -3.1315 H       
  25 H25           -0.2642    -1.4704    -2.5580 H       
  26 H26            3.3212    -3.2511     0.9625 H       
  27 H27            4.9198    -2.7639     0.3499 H       
  28 H28            3.7726    -1.5298     0.9235 H       
  29 H29            3.0117    -3.6252    -2.7283 H       
  30 H30            4.4755    -3.9876    -1.7826 H       
  31 H31            2.8769    -4.4748    -1.1700 H       
  32 H32            3.9619    -0.3373    -1.2638 H       
  33 H33            5.1091    -1.5714    -1.8374 H       
  34 H34            3.6454    -1.2090    -2.7831 H       
  35 H35           -0.6017     3.9472     0.9164 H       
  36 H36           -0.6102     3.9569    -0.8636 H       
  37 H37           -3.0784     3.8265     0.9275 H       
  38 H38           -2.5128     5.2636     0.0426 H       
  39 H39           -3.0869     3.8361    -0.8525 H       
@<TRIPOS>BOND
   1    1    2 1
   2    1    4 2
   3    1    5 1
   4    2    3 1
   5    2    6 1
   6    2   16 1
   7    3   17 1
   8    3   18 1
   9    3   19 1
  10    5   14 1
  11    6    7 1
  12    7    8 1
  13    7    9 1
  14    7   10 1
  15    8   20 1
  16    8   21 1
  17    8   22 1
  18    9   23 1
  19    9   24 1
  20    9   25 1
  21   10   11 1
  22   10   13 1
  23   10   12 1
  24   11   26 1
  25   11   27 1
  26   11   28 1
  27   12   29 1
  28   12   30 1
  29   12   31 1
  30   13   32 1
  31   13   33 1
  32   13   34 1
  33   14   15 1
  34   14   35 1
  35   14   36 1
  36   15   37 1
  37   15   38 1
  38   15   39 1

#	End of record

