#	Name: ASD01900624
#	Creating user name:	WinNT
#	Creation time:	15. 06. 2019 19:52

#	Modifying user name:	WinNT
#	Modification time:	15. 06. 2019 19:52

#	Program:	/corina/corina34_cracker 3.40 0067  02.08.2006

@<TRIPOS>MOLECULE
ASD01900624
  37   40    0    0    0
SMALL
NO_CHARGES


@<TRIPOS>ATOM
   1 C1            -0.0167     1.3807     0.0096 C.ar    
   2 C2             0.0021    -0.0041     0.0020 C.ar    
   3 C3            -1.1752    -0.7249     0.0120 C.ar    
   4 C4            -2.3951    -0.0617     0.0300 C.ar    
   5 C5            -2.4092     1.3398     0.0332 C.ar    
   6 C6            -1.2204     2.0574     0.0305 C.ar    
   7 O7            -3.5537    -0.7544     0.0516 O.3     
   8 C8            -4.7322    -0.1706    -0.2260 C.2     
   9 C9            -4.8987     1.1728    -0.2441 C.2     
  10 C10           -3.7272     2.0240     0.0389 C.2     
  11 N11           -3.8429     3.3070     0.2803 N.2     
  12 C12           -5.8945    -1.0311    -0.5243 C.ar    
  13 N13           -7.0727    -0.4655    -0.8021 N.ar    
  14 C14           -8.1451    -1.1653    -1.0762 C.ar    
  15 C15           -8.0907    -2.5702    -1.0869 C.ar    
  16 C16           -6.8567    -3.2107    -0.7968 C.ar    
  17 C17           -5.7389    -2.4084    -0.5158 C.ar    
  18 C18           -9.2189    -3.3528    -1.3750 C.ar    
  19 C19           -9.1136    -4.7111    -1.3721 C.ar    
  20 C20           -7.9025    -5.3388    -1.0874 C.ar    
  21 C21           -6.7857    -4.6123    -0.8031 C.ar    
  22 O22           -5.1212     3.9161     0.2747 O.3     
  23 C23            1.2788     2.1505     0.0014 C.3     
  24 H24            0.9477    -0.5255    -0.0122 H       
  25 H25           -1.1474    -1.8045     0.0054 H       
  26 H26           -1.2371     3.1373     0.0368 H       
  27 H27           -5.8627     1.6096    -0.4594 H       
  28 H28           -9.0751    -0.6613    -1.2945 H       
  29 H29           -4.7816    -2.8546    -0.2901 H       
  30 H30          -10.1649    -2.8815    -1.5973 H       
  31 H31           -9.9835    -5.3115    -1.5938 H       
  32 H32           -7.8483    -6.4174    -1.0924 H       
  33 H33           -5.8531    -5.1110    -0.5842 H       
  34 H34           -5.1059     4.8645     0.4631 H       
  35 H35            1.5814     2.3416    -1.0282 H       
  36 H36            1.1415     3.0985     0.5217 H       
  37 H37            2.0506     1.5683     0.5048 H       
@<TRIPOS>BOND
   1    1    2 ar
   2    1   23 1
   3    1    6 ar
   4    2    3 ar
   5    2   24 1
   6    3    4 ar
   7    3   25 1
   8    4    5 ar
   9    4    7 1
  10    5    6 ar
  11    5   10 1
  12    6   26 1
  13    7    8 1
  14    8    9 2
  15    8   12 1
  16    9   10 1
  17    9   27 1
  18   10   11 2
  19   11   22 1
  20   12   13 ar
  21   12   17 ar
  22   13   14 ar
  23   14   15 ar
  24   14   28 1
  25   15   16 ar
  26   15   18 ar
  27   16   17 ar
  28   16   21 ar
  29   17   29 1
  30   18   19 ar
  31   18   30 1
  32   19   20 ar
  33   19   31 1
  34   20   21 ar
  35   20   32 1
  36   21   33 1
  37   22   34 1
  38   23   35 1
  39   23   36 1
  40   23   37 1

#	End of record

