#	Name: ASD08150280
#	Creating user name:	WinNT
#	Creation time:	15. 06. 2019 21:15

#	Modifying user name:	WinNT
#	Modification time:	15. 06. 2019 21:15

#	Program:	/corina/corina34_cracker 3.40 0067  02.08.2006

@<TRIPOS>MOLECULE
ASD08150280
  26   27    0    0    0
SMALL
NO_CHARGES


@<TRIPOS>ATOM
   1 N1            -0.0526     1.4273    -0.0173 N.3     
   2 C2            -0.2179    -0.0230    -0.1924 C.3     
   3 C3             0.6173    -0.4854    -1.3894 C.3     
   4 O4             1.9835    -0.1173    -1.1817 O.3     
   5 C5             2.1810     1.2884    -1.0079 C.3     
   6 C6             1.3617     1.7688     0.1929 C.3     
   7 C7            -1.6927    -0.3424    -0.4446 C.3     
   8 C8            -0.8355     1.8934     1.0245 C.ar    
   9 N9            -0.9867     1.1427     2.1056 N.ar    
  10 C10           -1.7286     1.5587     3.1206 C.ar    
  11 C11           -2.3503     2.7961     3.0414 C.ar    
  12 C12           -2.1705     3.5558     1.8949 C.ar    
  13 N13           -1.4113     3.0819     0.9188 N.ar    
  14 Cl14          -2.9265     5.1112     1.7440 Cl      
  15 Cl15          -1.9210     0.5674     4.5327 Cl      
  16 H16            0.1183    -0.5389     0.7070 H       
  17 H17            0.5431    -1.5684    -1.4882 H       
  18 H18            0.2463    -0.0101    -2.2974 H       
  19 H19            3.2378     1.4884    -0.8309 H       
  20 H20            1.8555     1.8153    -1.9049 H       
  21 H21            1.4640     2.8493     0.2945 H       
  22 H22            1.7232     1.2816     1.0985 H       
  23 H23           -2.0554     0.2533    -1.2823 H       
  24 H24           -1.8003    -1.4016    -0.6786 H       
  25 H25           -2.2732    -0.1066     0.4473 H       
  26 H26           -2.9612     3.1599     3.8544 H       
@<TRIPOS>BOND
   1    1    2 1
   2    1    6 1
   3    1    8 1
   4    2    3 1
   5    2    7 1
   6    2   16 1
   7    3    4 1
   8    3   17 1
   9    3   18 1
  10    4    5 1
  11    5    6 1
  12    5   19 1
  13    5   20 1
  14    6   21 1
  15    6   22 1
  16    7   23 1
  17    7   24 1
  18    7   25 1
  19    8    9 ar
  20    8   13 ar
  21    9   10 ar
  22   10   11 ar
  23   10   15 1
  24   11   12 ar
  25   11   26 1
  26   12   13 ar
  27   12   14 1

#	End of record

