#	Name: ASD07301341
#	Creating user name:	WinNT
#	Creation time:	15. 06. 2019 21:11

#	Modifying user name:	WinNT
#	Modification time:	15. 06. 2019 21:11

#	Program:	/corina/corina34_cracker 3.40 0067  02.08.2006

@<TRIPOS>MOLECULE
ASD07301341
  42   45    0    0    0
SMALL
NO_CHARGES


@<TRIPOS>ATOM
   1 C1            -0.0168     1.4656     0.0601 C.2     
   2 C2             0.0021    -0.0041     0.0010 C.2     
   3 C3             1.2691    -0.6326    -0.0648 C.2     
   4 C4             2.3696     0.1607    -0.0687 C.2     
   5 N5             2.2533     1.5067    -0.0114 N.pl3   
   6 N6             1.1259     2.1138     0.0491 N.2     
   7 O7            -1.0321    -0.6551     0.0087 O.2     
   8 N8            -3.4451     2.6962     0.2041 N.pl3   
   9 N9            -2.5029     1.6619     0.1364 N.2     
  10 C10           -1.3014     2.2018     0.1246 C.2     
  11 C11           -1.4511     3.6021     0.1849 C.2     
  12 C12           -2.7725     3.8766     0.2327 C.2     
  13 C13           -4.8373     2.5412     0.2314 C.ar    
  14 C14           -5.3967     1.2709     0.1908 C.ar    
  15 C15           -6.7695     1.1213     0.2183 C.ar    
  16 C16           -7.5865     2.2349     0.2863 C.ar    
  17 C17           -7.0324     3.5012     0.3265 C.ar    
  18 C18           -5.6603     3.6572     0.3050 C.ar    
  19 C19            3.4221     2.2754    -0.0179 C.ar    
  20 C20            3.3439     3.6577    -0.1145 C.ar    
  21 C21            4.5063     4.4166    -0.1201 C.ar    
  22 C22            5.7442     3.7898    -0.0291 C.ar    
  23 C23            5.8178     2.4139     0.0664 C.ar    
  24 C24            4.6624     1.6560     0.0780 C.ar    
  25 S25            4.4132     6.1718    -0.2430 S.3     
  26 C26            6.1553     6.6763    -0.2085 C.3     
  27 H27            1.3565    -1.7081    -0.1101 H       
  28 H28            3.3506    -0.2883    -0.1178 H       
  29 H29           -0.6507     4.3271     0.1921 H       
  30 H30           -3.2161     4.8600     0.2847 H       
  31 H31           -4.7591     0.4009     0.1373 H       
  32 H32           -7.2052     0.1336     0.1864 H       
  33 H33           -8.6597     2.1153     0.3077 H       
  34 H34           -7.6732     4.3690     0.3789 H       
  35 H35           -5.2280     4.6462     0.3413 H       
  36 H36            2.3811     4.1418    -0.1854 H       
  37 H37            6.6490     4.3794    -0.0334 H       
  38 H38            6.7805     1.9295     0.1366 H       
  39 H39            4.7235     0.5807     0.1573 H       
  40 H40            6.2207     7.7620    -0.2797 H       
  41 H41            6.6110     6.3453     0.7247 H       
  42 H42            6.6811     6.2247    -1.0498 H       
@<TRIPOS>BOND
   1    1    2 1
   2    1    6 2
   3    1   10 1
   4    2    3 1
   5    2    7 2
   6    3    4 2
   7    3   27 1
   8    4    5 1
   9    4   28 1
  10    5    6 1
  11    5   19 1
  12    8    9 1
  13    8   12 1
  14    8   13 1
  15    9   10 2
  16   10   11 1
  17   11   12 2
  18   11   29 1
  19   12   30 1
  20   13   14 ar
  21   13   18 ar
  22   14   15 ar
  23   14   31 1
  24   15   16 ar
  25   15   32 1
  26   16   17 ar
  27   16   33 1
  28   17   18 ar
  29   17   34 1
  30   18   35 1
  31   19   20 ar
  32   19   24 ar
  33   20   21 ar
  34   20   36 1
  35   21   22 ar
  36   21   25 1
  37   22   23 ar
  38   22   37 1
  39   23   24 ar
  40   23   38 1
  41   24   39 1
  42   25   26 1
  43   26   40 1
  44   26   41 1
  45   26   42 1

#	End of record

