#	Name: ASD01910187
#	Creating user name:	WinNT
#	Creation time:	15. 06. 2019 19:55

#	Modifying user name:	WinNT
#	Modification time:	15. 06. 2019 19:55

#	Program:	/corina/corina34_cracker 3.40 0067  02.08.2006

@<TRIPOS>MOLECULE
ASD01910187
  40   42    0    0    0
SMALL
NO_CHARGES


@<TRIPOS>ATOM
   1 C1            -0.2187     1.3746     0.0960 C.ar    
   2 C2             0.0373     0.0372     0.3287 C.ar    
   3 C3             1.3446    -0.4334     0.3192 C.ar    
   4 C4             2.3934     0.4413     0.0757 C.ar    
   5 C5             2.1330     1.7844    -0.1577 C.ar    
   6 C6             0.8237     2.2486    -0.1468 C.ar    
   7 N7             3.1875     2.6695    -0.4031 N.am    
   8 C8             4.2615     2.2597    -1.1067 C.2     
   9 C9             5.3287     3.2217    -1.4539 C.ar    
  10 N10            1.6030    -1.7882     0.5554 N.am    
  11 C11            0.7249    -2.7236     0.1426 C.2     
  12 C12            6.4421     2.8004    -2.1824 C.ar    
  13 C13            7.4349     3.7031    -2.5039 C.ar    
  14 C14            7.3292     5.0235    -2.1057 C.ar    
  15 C15            6.2272     5.4488    -1.3826 C.ar    
  16 C16            5.2243     4.5567    -1.0595 C.ar    
  17 O17           -0.2421    -2.3999    -0.5140 O.2     
  18 O18            4.3525     1.0988    -1.4558 O.2     
  19 C19            0.9447    -4.1718     0.4967 C.3     
  20 Cl20           6.1036     7.1080    -0.8873 Cl      
  21 C21           -0.1440    -5.1113    -0.0481 C.3     
  22 C22            0.9844    -6.1066    -0.3658 C.3     
  23 C23            1.9263    -4.8934    -0.4417 C.3     
  24 H24           -1.2360     1.7371     0.0995 H       
  25 H25           -0.7796    -0.6433     0.5186 H       
  26 H26            3.4104     0.0780     0.0681 H       
  27 H27            0.6203     3.2935    -0.3287 H       
  28 H28            3.1459     3.5785    -0.0670 H       
  29 H29            2.4140    -2.0540     1.0163 H       
  30 H30            6.5267     1.7697    -2.4935 H       
  31 H31            8.2968     3.3779    -3.0676 H       
  32 H32            8.1095     5.7258    -2.3594 H       
  33 H33            4.3653     4.8890    -0.4956 H       
  34 H34            1.1605    -4.3208     1.5547 H       
  35 H35           -0.8368    -5.4658     0.7152 H       
  36 H36           -0.6493    -4.7267    -0.9340 H       
  37 H37            1.2121    -6.7854     0.4560 H       
  38 H38            0.8574    -6.6210    -1.3184 H       
  39 H39            1.9870    -4.4492    -1.4352 H       
  40 H40            2.9050    -5.0719     0.0038 H       
@<TRIPOS>BOND
   1    1    2 ar
   2    1    6 ar
   3    1   24 1
   4    2    3 ar
   5    2   25 1
   6    3    4 ar
   7    3   10 1
   8    4    5 ar
   9    4   26 1
  10    5    6 ar
  11    5    7 1
  12    6   27 1
  13    7    8 am
  14    7   28 1
  15    8    9 1
  16    8   18 2
  17    9   12 ar
  18    9   16 ar
  19   10   11 am
  20   10   29 1
  21   11   17 2
  22   11   19 1
  23   12   13 ar
  24   12   30 1
  25   13   14 ar
  26   13   31 1
  27   14   15 ar
  28   14   32 1
  29   15   16 ar
  30   15   20 1
  31   16   33 1
  32   19   21 1
  33   19   23 1
  34   19   34 1
  35   21   22 1
  36   21   35 1
  37   21   36 1
  38   22   23 1
  39   22   37 1
  40   22   38 1
  41   23   39 1
  42   23   40 1

#	End of record

