#	Name: ASD01028204
#	Creating user name:	WinNT
#	Creation time:	15. 06. 2019 18:56

#	Modifying user name:	WinNT
#	Modification time:	15. 06. 2019 18:56

#	Program:	/corina/corina34_cracker 3.40 0067  02.08.2006

@<TRIPOS>MOLECULE
ASD01028204
  37   41    0    0    0
SMALL
NO_CHARGES


@<TRIPOS>ATOM
   1 C1            -0.0184     1.5028     0.0103 C.3     
   2 C2             0.0021    -0.0041     0.0020 C.2     
   3 N3             0.0233    -0.8071     1.0882 N.pl3   
   4 C4             0.0358    -2.0951     0.6074 C.2     
   5 N5             0.0218    -2.0109    -0.7128 N.2     
   6 N6            -0.0033    -0.7713    -1.0595 N.2     
   7 N7             0.0340    -0.5736     2.4648 N.2     
   8 C8             0.0559    -1.5792     3.3114 C.2     
   9 C9             0.0691    -2.9123     2.8491 C.2     
  10 C10            0.0585    -3.1711     1.5148 C.2     
  11 C11            0.0674    -1.3091     4.7702 C.ar    
  12 C12            0.0550     0.0033     5.2386 C.ar    
  13 C13            0.0848    -2.3670     5.6771 C.ar    
  14 C14            0.0950    -2.1100     7.0331 C.ar    
  15 C15            0.0874    -0.8052     7.4924 C.ar    
  16 C16            0.0653     0.2487     6.5967 C.ar    
  17 N17            1.3560     2.0099    -0.0001 N.pl3   
  18 N18            2.1316     2.3065    -1.1314 N.2     
  19 C19            2.1319     2.2923     1.0921 C.ar    
  20 C20            3.3665     2.7504     0.5896 C.ar    
  21 N21            3.2888     2.7307    -0.7597 N.2     
  22 C22            1.9572     2.2227     2.4718 C.ar    
  23 C23            2.9863     2.6002     3.2883 C.ar    
  24 N24            4.1370     3.0277     2.7947 N.ar    
  25 C25            4.3619     3.1147     1.5019 C.ar    
  26 H26           -0.5455     1.8639    -0.8728 H       
  27 H27           -0.5286     1.8543     0.9071 H       
  28 H28            0.0875    -3.7281     3.5565 H       
  29 H29            0.0686    -4.1895     1.1553 H       
  30 H30            0.0377     0.8269     4.5401 H       
  31 H31            0.0900    -3.3861     5.3196 H       
  32 H32            0.1085    -2.9291     7.7369 H       
  33 H33            0.0947    -0.6086     8.5543 H       
  34 H34            0.0598     1.2654     6.9607 H       
  35 H35            1.0235     1.8765     2.8900 H       
  36 H36            2.8573     2.5486     4.3593 H       
  37 H37            5.3171     3.4694     1.1439 H       
@<TRIPOS>BOND
   1    1    2 1
   2    1   17 1
   3    1   26 1
   4    1   27 1
   5    2    3 1
   6    2    6 2
   7    3    4 1
   8    3    7 1
   9    4    5 2
  10    4   10 1
  11    5    6 1
  12    7    8 2
  13    8    9 1
  14    8   11 1
  15    9   10 2
  16    9   28 1
  17   10   29 1
  18   11   12 ar
  19   11   13 ar
  20   12   16 ar
  21   12   30 1
  22   13   14 ar
  23   13   31 1
  24   14   15 ar
  25   14   32 1
  26   15   16 ar
  27   15   33 1
  28   16   34 1
  29   17   18 1
  30   17   19 1
  31   18   21 2
  32   19   20 ar
  33   19   22 ar
  34   20   21 1
  35   20   25 ar
  36   22   23 ar
  37   22   35 1
  38   23   24 ar
  39   23   36 1
  40   24   25 ar
  41   25   37 1

#	End of record

