#	Name: ASD06020084
#	Creating user name:	WinNT
#	Creation time:	15. 06. 2019 21:04

#	Modifying user name:	WinNT
#	Modification time:	15. 06. 2019 21:04

#	Program:	/corina/corina34_cracker 3.40 0067  02.08.2006

@<TRIPOS>MOLECULE
ASD06020084
  37   40    0    0    0
SMALL
NO_CHARGES


@<TRIPOS>ATOM
   1 C1             0.0192     1.3265     0.0375 C.3     
   2 O2            -0.8925     2.4263     0.0729 O.3     
   3 C3             1.4335     1.8466     0.0189 C.ar    
   4 C4             1.6670     3.2089     0.0367 C.ar    
   5 N5             2.4477     0.9985    -0.0089 N.ar    
   6 N6             2.9061     3.6695     0.0205 N.ar    
   7 C7             3.9266     2.8221    -0.0129 C.ar    
   8 C8             3.6874     1.4501    -0.0252 C.ar    
   9 N9             5.2321     3.3027    -0.0301 N.pl3   
  10 C10            5.4688     4.6704    -0.1301 C.ar    
  11 C11            6.7760     5.1591    -0.0343 C.ar    
  12 C12            7.0073     6.5356    -0.1361 C.ar    
  13 C13            5.8756     7.3670    -0.3345 C.ar    
  14 C14            4.6393     6.8083    -0.4162 C.ar    
  15 N15            4.4578     5.5004    -0.3204 N.ar    
  16 S16            8.3222     4.3535     0.2063 S.3     
  17 C17            9.1497     5.9048     0.1525 C.2     
  18 N18            8.2964     6.8601    -0.0273 N.2     
  19 C19           10.6091     6.0900     0.2933 C.ar    
  20 C20           11.1629     7.3711     0.2349 C.ar    
  21 C21           12.5272     7.5366     0.3672 C.ar    
  22 C22           13.3463     6.4376     0.5568 C.ar    
  23 C23           12.8063     5.1661     0.6159 C.ar    
  24 C24           11.4413     4.9849     0.4913 C.ar    
  25 F25           10.9142     3.7426     0.5552 F       
  26 Cl26          10.1382     8.7518    -0.0040 Cl      
  27 H27           -0.1275     0.7043     0.9204 H       
  28 H28           -0.1616     0.7334    -0.8590 H       
  29 H29           -1.8234     2.1652     0.0865 H       
  30 H30            0.8359     3.8981     0.0635 H       
  31 H31            4.5153     0.7569    -0.0478 H       
  32 H32            5.9773     2.6844     0.0276 H       
  33 H33            5.9953     8.4369    -0.4197 H       
  34 H34            3.7825     7.4481    -0.5673 H       
  35 H35           12.9564     8.5266     0.3222 H       
  36 H36           14.4128     6.5737     0.6589 H       
  37 H37           13.4518     4.3129     0.7641 H       
@<TRIPOS>BOND
   1    1    2 1
   2    1    3 1
   3    1   27 1
   4    1   28 1
   5    2   29 1
   6    3    4 ar
   7    3    5 ar
   8    4    6 ar
   9    4   30 1
  10    5    8 ar
  11    6    7 ar
  12    7    8 ar
  13    7    9 1
  14    8   31 1
  15    9   10 1
  16    9   32 1
  17   10   11 ar
  18   10   15 ar
  19   11   12 ar
  20   11   16 1
  21   12   13 ar
  22   12   18 1
  23   13   14 ar
  24   13   33 1
  25   14   15 ar
  26   14   34 1
  27   16   17 1
  28   17   18 2
  29   17   19 1
  30   19   20 ar
  31   19   24 ar
  32   20   21 ar
  33   20   26 1
  34   21   22 ar
  35   21   35 1
  36   22   23 ar
  37   22   36 1
  38   23   24 ar
  39   23   37 1
  40   24   25 1

#	End of record

