#	Name: ASD03092358
#	Creating user name:	WinNT
#	Creation time:	15. 06. 2019 20:32

#	Modifying user name:	WinNT
#	Modification time:	15. 06. 2019 20:32

#	Program:	/corina/corina34_cracker 3.40 0067  02.08.2006

@<TRIPOS>MOLECULE
ASD03092358
  53   56    0    0    0
SMALL
NO_CHARGES


@<TRIPOS>ATOM
   1 C1            -0.1063     2.1223     0.7704 C.3     
   2 C2            -0.1159     0.6065     0.9783 C.3     
   3 C3             1.2137     1.3533     0.8547 C.3     
   4 C4            -0.5726     4.1559    -0.5697 C.2     
   5 C5            -0.5301     2.6499    -0.6018 C.3     
   6 O6            -0.2916     4.7489     0.4503 O.2     
   7 N7            -0.9229     4.8439    -1.6744 N.am    
   8 C8            -0.9643     6.3080    -1.6432 C.3     
   9 S9            -1.4023     7.7519    -5.3475 S.3     
  10 C10           -2.8732     7.4008    -4.5504 C.2     
  11 N11           -2.6408     6.9383    -3.3587 N.2     
  12 C12           -1.3817     6.8276    -2.9948 C.2     
  13 C13           -0.4954     7.2196    -3.9339 C.2     
  14 N14           -4.1309     7.5833    -5.0959 N.3     
  15 C15           -4.0400     8.1220    -6.4608 C.3     
  16 C16           -5.4482     8.2520    -7.0472 C.3     
  17 O17           -6.2414     9.0782    -6.1907 O.3     
  18 C18           -6.3517     8.5829    -4.8536 C.3     
  19 C19           -4.9526     8.4563    -4.2450 C.3     
  20 C20            3.1108     8.2652    -4.0121 C.ar    
  21 C21            1.7412     8.3231    -4.1532 C.ar    
  22 C22            0.9744     7.2045    -3.8006 C.ar    
  23 C23            1.6422     6.0713    -3.3173 C.ar    
  24 C24            3.0157     6.1013    -3.2088 C.ar    
  25 N25            3.6998     7.1768    -3.5525 N.ar    
  26 C26            3.7467     4.8898    -2.6901 C.3     
  27 C27            3.9482     9.4587    -4.3934 C.3     
  28 H28           -0.3791     2.7485     1.6198 H       
  29 H29           -0.3950     0.2355     1.9644 H       
  30 H30           -0.4242    -0.0149     0.1374 H       
  31 H31            1.7802     1.2232    -0.0674 H       
  32 H32            1.8094     1.4736     1.7596 H       
  33 H33            0.1873     2.3226    -1.3543 H       
  34 H34           -1.5187     2.2637    -0.8500 H       
  35 H35           -1.1477     4.3696    -2.4902 H       
  36 H36           -1.6817     6.6352    -0.8907 H       
  37 H37            0.0243     6.6941    -1.3950 H       
  38 H38           -3.5649     9.1026    -6.4342 H       
  39 H39           -3.4488     7.4471    -7.0798 H       
  40 H40           -5.3900     8.7042    -8.0372 H       
  41 H41           -5.9032     7.2644    -7.1236 H       
  42 H42           -6.9468     9.2744    -4.2572 H       
  43 H43           -6.8330     7.6049    -4.8663 H       
  44 H44           -5.0276     8.0254    -3.2466 H       
  45 H45           -4.4921     9.4422    -4.1830 H       
  46 H46            1.2661     9.2170    -4.5295 H       
  47 H47            1.0890     5.1881    -3.0340 H       
  48 H48            4.0066     4.2377    -3.5240 H       
  49 H49            4.6560     5.2055    -2.1787 H       
  50 H50            3.1063     4.3500    -1.9926 H       
  51 H51            4.0668    10.1107    -3.5280 H       
  52 H52            4.9281     9.1218    -4.7316 H       
  53 H53            3.4553    10.0067    -5.1964 H       
@<TRIPOS>BOND
   1    1    2 1
   2    1    3 1
   3    1    5 1
   4    1   28 1
   5    2    3 1
   6    2   29 1
   7    2   30 1
   8    3   31 1
   9    3   32 1
  10    4    5 1
  11    4    6 2
  12    4    7 am
  13    5   33 1
  14    5   34 1
  15    7    8 1
  16    7   35 1
  17    8   12 1
  18    8   36 1
  19    8   37 1
  20    9   10 1
  21    9   13 1
  22   10   11 2
  23   10   14 1
  24   11   12 1
  25   12   13 2
  26   13   22 1
  27   14   15 1
  28   14   19 1
  29   15   16 1
  30   15   38 1
  31   15   39 1
  32   16   17 1
  33   16   40 1
  34   16   41 1
  35   17   18 1
  36   18   19 1
  37   18   42 1
  38   18   43 1
  39   19   44 1
  40   19   45 1
  41   20   21 ar
  42   20   25 ar
  43   20   27 1
  44   21   22 ar
  45   21   46 1
  46   22   23 ar
  47   23   24 ar
  48   23   47 1
  49   24   25 ar
  50   24   26 1
  51   26   48 1
  52   26   49 1
  53   26   50 1
  54   27   51 1
  55   27   52 1
  56   27   53 1

#	End of record

