#	Name: ASD09740704
#	Creating user name:	WinNT
#	Creation time:	15. 06. 2019 21:23

#	Modifying user name:	WinNT
#	Modification time:	15. 06. 2019 21:23

#	Program:	/corina/corina34_cracker 3.40 0067  02.08.2006

@<TRIPOS>MOLECULE
ASD09740704
  69   73    0    0    0
SMALL
NO_CHARGES


@<TRIPOS>ATOM
   1 N1            -0.0021     1.4753     0.0048 N.am    
   2 C2             0.0238     0.0053     0.0006 C.3     
   3 C3             1.5053    -0.4269     0.0022 C.3     
   4 C4             2.2299     0.8182     0.5784 C.3     
   5 C5             1.3856     1.9726    -0.0168 C.3     
   6 C6            -1.1109     2.2413     0.0200 C.2     
   7 O7            -2.2095     1.7205     0.0317 O.2     
   8 N8            -1.0018     3.5847     0.0223 N.am    
   9 N9             1.7054    -1.5936     0.8721 N.3     
  10 C10            0.9257    -2.7444     0.3971 C.3     
  11 C11            3.1308    -1.9318     0.9797 C.3     
  12 C12           -2.2071     4.4174     0.0389 C.3     
  13 C13           -1.9093     5.8028    -0.5728 C.3     
  14 C14           -2.8046     6.7354     0.2705 C.3     
  15 C15           -2.9755     6.0266     1.5968 C.ar    
  16 C16           -3.4028     6.5132     2.8359 C.ar    
  17 C17           -3.4806     5.6538     3.9314 C.ar    
  18 C18           -3.1350     4.3259     3.7862 C.ar    
  19 C19           -2.7128     3.8498     2.5593 C.ar    
  20 C20           -2.6329     4.6970     1.4646 C.ar    
  21 S21           -4.3279     8.7167     4.4666 S.3     
  22 C22           -3.7711     7.9370     2.9848 C.2     
  23 N23           -3.7417     8.8411     2.0432 N.2     
  24 N24           -4.0907    10.0142     2.3469 N.2     
  25 C25           -4.4557    10.2377     3.5810 C.2     
  26 C26           -4.8969    11.5341     4.1370 C.ar    
  27 C27           -4.9505    12.6602     3.3196 C.ar    
  28 C28           -5.3673    13.8804     3.8493 C.ar    
  29 C29           -5.7297    13.9648     5.2021 C.ar    
  30 C30           -5.6724    12.8363     6.0072 C.ar    
  31 C31           -5.2658    11.6286     5.4820 C.ar    
  32 O32           -6.1357    15.1498     5.7230 O.3     
  33 C33           -6.6029    15.1388     7.0735 C.3     
  34 C34           -5.4122    15.2633     8.0261 C.3     
  35 C35           -7.5566    16.3150     7.2927 C.3     
  36 C36           -5.4250    15.0435     3.0160 C.1     
  37 N37           -5.4707    15.9662     2.3549 N.1     
  38 H38           -0.4748    -0.3768     0.8913 H       
  39 H39           -0.4713    -0.3716    -0.8944 H       
  40 H40            1.8468    -0.6371    -1.0113 H       
  41 H41            2.1883     0.8252     1.6676 H       
  42 H42            3.2608     0.8673     0.2281 H       
  43 H43            1.6976     2.1822    -1.0400 H       
  44 H44            1.4777     2.8669     0.5995 H       
  45 H45           -0.1254     4.0002     0.0130 H       
  46 H46            1.2403    -3.0041    -0.6137 H       
  47 H47            1.0921    -3.5942     1.0590 H       
  48 H48           -0.1339    -2.4888     0.3934 H       
  49 H49            3.6744    -1.0854     1.3996 H       
  50 H50            3.2505    -2.7989     1.6293 H       
  51 H51            3.5253    -2.1620    -0.0100 H       
  52 H52           -3.0133     3.9281    -0.5076 H       
  53 H53           -0.8574     6.0619    -0.4519 H       
  54 H54           -2.1988     5.8331    -1.6232 H       
  55 H55           -2.3159     7.6986     0.4166 H       
  56 H56           -3.7719     6.8706    -0.2135 H       
  57 H57           -3.8099     6.0263     4.8901 H       
  58 H58           -3.1941     3.6577     4.6326 H       
  59 H59           -2.4430     2.8095     2.4524 H       
  60 H60           -4.6699    12.5886     2.2791 H       
  61 H61           -5.9518    12.9034     7.0483 H       
  62 H62           -5.2277    10.7530     6.1131 H       
  63 H63           -7.1282    14.2039     7.2686 H       
  64 H64           -4.8869    16.1982     7.8310 H       
  65 H65           -5.7686    15.2549     9.0562 H       
  66 H66           -4.7328    14.4253     7.8699 H       
  67 H67           -8.4049    16.2264     6.6140 H       
  68 H68           -7.9130    16.3067     8.3228 H       
  69 H69           -7.0313    17.2499     7.0976 H       
@<TRIPOS>BOND
   1    1    2 1
   2    1    5 1
   3    1    6 am
   4    2    3 1
   5    2   38 1
   6    2   39 1
   7    3    4 1
   8    3    9 1
   9    3   40 1
  10    4    5 1
  11    4   41 1
  12    4   42 1
  13    5   43 1
  14    5   44 1
  15    6    7 2
  16    6    8 am
  17    8   12 1
  18    8   45 1
  19    9   10 1
  20    9   11 1
  21   10   46 1
  22   10   47 1
  23   10   48 1
  24   11   49 1
  25   11   50 1
  26   11   51 1
  27   12   13 1
  28   12   20 1
  29   12   52 1
  30   13   14 1
  31   13   53 1
  32   13   54 1
  33   14   15 1
  34   14   55 1
  35   14   56 1
  36   15   16 ar
  37   15   20 ar
  38   16   17 ar
  39   16   22 1
  40   17   18 ar
  41   17   57 1
  42   18   19 ar
  43   18   58 1
  44   19   20 ar
  45   19   59 1
  46   21   22 1
  47   21   25 1
  48   22   23 2
  49   23   24 1
  50   24   25 2
  51   25   26 1
  52   26   27 ar
  53   26   31 ar
  54   27   28 ar
  55   27   60 1
  56   28   29 ar
  57   28   36 1
  58   29   30 ar
  59   29   32 1
  60   30   31 ar
  61   30   61 1
  62   31   62 1
  63   32   33 1
  64   33   34 1
  65   33   35 1
  66   33   63 1
  67   34   64 1
  68   34   65 1
  69   34   66 1
  70   35   67 1
  71   35   68 1
  72   35   69 1
  73   36   37 3

#	End of record

