#	Name: ASD03331234
#	Creating user name:	WinNT
#	Creation time:	15. 06. 2019 20:38

#	Modifying user name:	WinNT
#	Modification time:	15. 06. 2019 20:38

#	Program:	/corina/corina34_cracker 3.40 0067  02.08.2006

@<TRIPOS>MOLECULE
ASD03331234
  52   55    0    0    0
SMALL
NO_CHARGES


@<TRIPOS>ATOM
   1 N1            -0.0459     1.4957     0.5704 N.am    
   2 C2             0.0021     0.1510     1.1643 C.3     
   3 C3             0.5965    -0.8152     0.1342 C.3     
   4 N4             1.8891    -0.2953    -0.3313 N.3     
   5 C5             1.7283     0.9905    -1.0234 C.3     
   6 C6             1.1804     2.0307    -0.0406 C.3     
   7 C7            -1.1848     2.2163     0.5809 C.2     
   8 O8            -2.2137     1.7211     0.9985 O.2     
   9 N9            -1.1831     3.4859     0.1284 N.am    
  10 C10           -2.3850     4.1962     0.0330 C.ar    
  11 C11           -2.4007     5.5669     0.2480 C.ar    
  12 C12           -3.5933     6.2672     0.1526 C.ar    
  13 C13           -4.7679     5.5965    -0.1574 C.ar    
  14 C14           -4.7503     4.2311    -0.3712 C.ar    
  15 C15           -3.5630     3.5309    -0.2827 C.ar    
  16 C16            2.5718    -1.2731    -1.1891 C.3     
  17 C17            3.7641    -0.6226    -1.8420 C.ar    
  18 C18            5.0069    -0.6552    -1.2138 C.ar    
  19 N19            6.0664    -0.1007    -1.7514 N.ar    
  20 C20            6.0008     0.5232    -2.9315 C.ar    
  21 C21            4.7667     0.5931    -3.6246 C.ar    
  22 C22            3.6284    -0.0054    -3.0531 C.ar    
  23 C23            4.7030     1.2506    -4.8639 C.ar    
  24 C24            7.1401     1.1166    -3.5031 C.ar    
  25 C25            7.0424     1.7453    -4.7059 C.ar    
  26 C26            5.8275     1.8134    -5.3853 C.ar    
  27 O27           -3.6121     7.6097     0.3631 O.3     
  28 C28           -4.8760     8.2666     0.2485 C.3     
  29 H29            0.6289     0.1667     2.0560 H       
  30 H30           -1.0060    -0.1691     1.4276 H       
  31 H31            0.7418    -1.7928     0.5939 H       
  32 H32           -0.0841    -0.9084    -0.7121 H       
  33 H33            2.6946     1.3224    -1.4031 H       
  34 H34            1.0320     0.8721    -1.8535 H       
  35 H35            0.9513     2.9533    -0.5740 H       
  36 H36            1.9204     2.2271     0.7352 H       
  37 H37           -0.3488     3.9072    -0.1311 H       
  38 H38           -1.4857     6.0872     0.4895 H       
  39 H39           -5.6970     6.1421    -0.2313 H       
  40 H40           -5.6658     3.7115    -0.6124 H       
  41 H41           -3.5511     2.4648    -0.4550 H       
  42 H42            2.9040    -2.1172    -0.5848 H       
  43 H43            1.8837    -1.6250    -1.9578 H       
  44 H44            5.1001    -1.1499    -0.2583 H       
  45 H45            2.6724     0.0289    -3.5545 H       
  46 H46            3.7675     1.3090    -5.4003 H       
  47 H47            8.0891     1.0738    -2.9894 H       
  48 H48            7.9204     2.1998    -5.1406 H       
  49 H49            5.7779     2.3181    -6.3389 H       
  50 H50           -5.2706     8.1223    -0.7572 H       
  51 H51           -5.5711     7.8464     0.9753 H       
  52 H52           -4.7502     9.3323     0.4400 H       
@<TRIPOS>BOND
   1    1    2 1
   2    1    6 1
   3    1    7 am
   4    2    3 1
   5    2   29 1
   6    2   30 1
   7    3    4 1
   8    3   31 1
   9    3   32 1
  10    4    5 1
  11    4   16 1
  12    5    6 1
  13    5   33 1
  14    5   34 1
  15    6   35 1
  16    6   36 1
  17    7    8 2
  18    7    9 am
  19    9   10 1
  20    9   37 1
  21   10   11 ar
  22   10   15 ar
  23   11   12 ar
  24   11   38 1
  25   12   13 ar
  26   12   27 1
  27   13   14 ar
  28   13   39 1
  29   14   15 ar
  30   14   40 1
  31   15   41 1
  32   16   17 1
  33   16   42 1
  34   16   43 1
  35   17   18 ar
  36   17   22 ar
  37   18   19 ar
  38   18   44 1
  39   19   20 ar
  40   20   21 ar
  41   20   24 ar
  42   21   22 ar
  43   21   23 ar
  44   22   45 1
  45   23   26 ar
  46   23   46 1
  47   24   25 ar
  48   24   47 1
  49   25   26 ar
  50   25   48 1
  51   26   49 1
  52   27   28 1
  53   28   50 1
  54   28   51 1
  55   28   52 1

#	End of record

