#	Name: ASD01140311
#	Creating user name:	WinNT
#	Creation time:	15. 06. 2019 19:00

#	Modifying user name:	WinNT
#	Modification time:	15. 06. 2019 19:00

#	Program:	/corina/corina34_cracker 3.40 0067  02.08.2006

@<TRIPOS>MOLECULE
ASD01140311
  42   45    0    0    0
SMALL
NO_CHARGES


@<TRIPOS>ATOM
   1 C1             0.2641     1.7635     0.5071 C.ar    
   2 C2             0.1326     0.3847     0.5067 C.ar    
   3 C3             1.2391    -0.4173     0.3415 C.ar    
   4 C4             2.5118     0.1492     0.1716 C.ar    
   5 C5             2.6315     1.5398     0.1498 C.ar    
   6 C6             1.5063     2.3371     0.3294 C.ar    
   7 C7             3.6580    -0.7589     0.0567 C.2     
   8 N8             4.6671    -0.6588    -0.7355 N.2     
   9 C9             4.7850     0.4397    -1.7013 C.3     
  10 C10            4.8240     1.7308    -0.9254 C.2     
  11 N11            3.8569     2.1717    -0.0826 N.pl3   
  12 I12           -1.7572    -0.4834     0.7590 I       
  13 C13            4.2881     3.3429     0.4595 C.2     
  14 C14            3.6536    -1.9319     0.9615 C.ar    
  15 C15            4.3572    -3.0855     0.6159 C.ar    
  16 C16            5.8143     2.6643    -0.9241 C.2     
  17 N17            5.4488     3.6413    -0.0514 N.2     
  18 C18            7.0520     2.6237    -1.7192 C.2     
  19 O19            7.9511     3.6229    -1.6180 O.3     
  20 O20            7.2634     1.6893    -2.4672 O.2     
  21 C21            9.1490     3.5166    -2.4318 C.3     
  22 C22           10.0433     4.7331    -2.1842 C.3     
  23 C23            4.3497    -4.1746     1.4630 C.ar    
  24 C24            3.6459    -4.1240     2.6530 C.ar    
  25 C25            2.9461    -2.9826     3.0014 C.ar    
  26 C26            2.9507    -1.8850     2.1653 C.ar    
  27 H27           -0.6058     2.3892     0.6419 H       
  28 H28            1.1269    -1.4915     0.3430 H       
  29 H29            1.6054     3.4125     0.3299 H       
  30 H30            5.7032     0.3276    -2.2780 H       
  31 H31            3.9249     0.4370    -2.3708 H       
  32 H32            3.7552     3.9293     1.1934 H       
  33 H33            4.9064    -3.1264    -0.3132 H       
  34 H34            9.6894     2.6082    -2.1659 H       
  35 H35            8.8706     3.4787    -3.4849 H       
  36 H36            9.5028     5.6416    -2.4501 H       
  37 H37           10.3216     4.7711    -1.1310 H       
  38 H38           10.9425     4.6534    -2.7950 H       
  39 H39            4.8941    -5.0684     1.1965 H       
  40 H40            3.6424    -4.9792     3.3125 H       
  41 H41            2.3982    -2.9492     3.9315 H       
  42 H42            2.4040    -0.9944     2.4383 H       
@<TRIPOS>BOND
   1    1    2 ar
   2    1    6 ar
   3    1   27 1
   4    2    3 ar
   5    2   12 1
   6    3    4 ar
   7    3   28 1
   8    4    5 ar
   9    4    7 1
  10    5    6 ar
  11    5   11 1
  12    6   29 1
  13    7    8 2
  14    7   14 1
  15    8    9 1
  16    9   10 1
  17    9   30 1
  18    9   31 1
  19   10   11 1
  20   10   16 2
  21   11   13 1
  22   13   17 2
  23   13   32 1
  24   14   15 ar
  25   14   26 ar
  26   15   23 ar
  27   15   33 1
  28   16   17 1
  29   16   18 1
  30   18   19 1
  31   18   20 2
  32   19   21 1
  33   21   22 1
  34   21   34 1
  35   21   35 1
  36   22   36 1
  37   22   37 1
  38   22   38 1
  39   23   24 ar
  40   23   39 1
  41   24   25 ar
  42   24   40 1
  43   25   26 ar
  44   25   41 1
  45   26   42 1

#	End of record

