#	Name: ASD00170912
#	Creating user name:	WinNT
#	Creation time:	15. 06. 2019 18:32

#	Modifying user name:	WinNT
#	Modification time:	15. 06. 2019 18:32

#	Program:	/corina/corina34_cracker 3.40 0067  02.08.2006

@<TRIPOS>MOLECULE
ASD00170912
  39   42    0    0    0
SMALL
NO_CHARGES


@<TRIPOS>ATOM
   1 C1             0.5862     0.5337    -1.0670 C.2     
   2 N2            -0.0120     0.0420     0.0330 N.am    
   3 C3             0.6200     0.4468     1.1495 C.2     
   4 C4             1.7625     1.2999     0.7609 C.ar    
   5 C5             2.7443     1.9814     1.4622 C.ar    
   6 C6             3.6989     2.7129     0.7728 C.ar    
   7 C7             3.6778     2.7670    -0.6083 C.ar    
   8 C8             2.7018     2.0905    -1.3233 C.ar    
   9 C9             1.7411     1.3551    -0.6478 C.ar    
  10 O10            0.2386     0.3321    -2.2130 O.2     
  11 O11            0.3041     0.1597     2.2864 O.2     
  12 C12           -1.1340    -0.7758     0.0180 C.2     
  13 C13           -1.1024    -2.1424    -0.1084 C.2     
  14 C14           -2.4214    -2.7369    -0.0920 C.2     
  15 C15           -3.3936    -1.8451     0.0414 C.2     
  16 S16           -2.7393    -0.2215     0.1613 S.3     
  17 C17           -2.6656    -4.2189    -0.2141 C.3     
  18 O18           -2.5609    -4.8268     1.0749 O.3     
  19 C19            0.1342    -2.9159    -0.2459 C.2     
  20 C20            0.6157    -3.3076    -1.5878 C.ar    
  21 C21            1.7397    -4.1256    -1.7179 C.ar    
  22 C22            2.1838    -4.4880    -2.9720 C.ar    
  23 C23            1.5172    -4.0423    -4.1014 C.ar    
  24 C24            0.4014    -3.2306    -3.9787 C.ar    
  25 C25           -0.0552    -2.8658    -2.7298 C.ar    
  26 O26            0.7652    -3.2360     0.7447 O.2     
  27 Cl27           2.0826    -4.5023    -5.6770 Cl      
  28 Br28          -5.2360    -2.2668     0.1016 Br      
  29 H29            2.7655     1.9430     2.5413 H       
  30 H30            4.4642     3.2446     1.3187 H       
  31 H31            4.4268     3.3407    -1.1339 H       
  32 H32            2.6901     2.1366    -2.4022 H       
  33 H33           -3.6638    -4.3908    -0.6168 H       
  34 H34           -1.9238    -4.6554    -0.8830 H       
  35 H35           -2.7067    -5.7827     1.0720 H       
  36 H36            2.2605    -4.4734    -0.8380 H       
  37 H37            3.0534    -5.1204    -3.0739 H       
  38 H38           -0.1141    -2.8858    -4.8629 H       
  39 H39           -0.9277    -2.2363    -2.6352 H       
@<TRIPOS>BOND
   1    1    2 am
   2    1    9 1
   3    1   10 2
   4    2    3 am
   5    2   12 1
   6    3    4 1
   7    3   11 2
   8    4    5 ar
   9    4    9 ar
  10    5    6 ar
  11    5   29 1
  12    6    7 ar
  13    6   30 1
  14    7    8 ar
  15    7   31 1
  16    8    9 ar
  17    8   32 1
  18   12   13 2
  19   12   16 1
  20   13   14 1
  21   13   19 1
  22   14   15 2
  23   14   17 1
  24   15   16 1
  25   15   28 1
  26   17   18 1
  27   17   33 1
  28   17   34 1
  29   18   35 1
  30   19   20 1
  31   19   26 2
  32   20   21 ar
  33   20   25 ar
  34   21   22 ar
  35   21   36 1
  36   22   23 ar
  37   22   37 1
  38   23   24 ar
  39   23   27 1
  40   24   25 ar
  41   24   38 1
  42   25   39 1

#	End of record

