#	Name: ASD01914362
#	Creating user name:	WinNT
#	Creation time:	15. 06. 2019 20:03

#	Modifying user name:	WinNT
#	Modification time:	15. 06. 2019 20:03

#	Program:	/corina/corina34_cracker 3.40 0067  02.08.2006

@<TRIPOS>MOLECULE
ASD01914362
  46   49    0    0    0
SMALL
NO_CHARGES


@<TRIPOS>ATOM
   1 C1            -0.0167     1.3836     0.0096 C.ar    
   2 C2             0.0021    -0.0041     0.0020 C.ar    
   3 C3             1.2155    -0.6631    -0.0131 C.ar    
   4 N4             2.3504     0.0096    -0.0203 N.ar    
   5 C5             2.3733     1.3322    -0.0134 C.ar    
   6 C6             1.1908     2.0603     0.0018 C.ar    
   7 O7             3.5634     1.9836    -0.0213 O.3     
   8 C8             4.7437     1.1783    -0.0369 C.3     
   9 C9             5.9594     2.0688    -0.0437 C.ar    
  10 C10            6.5190     2.4639     1.1504 C.ar    
  11 C11            7.6454     3.2894     1.1469 C.ar    
  12 C12            8.1845     3.7174    -0.0867 C.ar    
  13 C13            7.6078     3.3003    -1.2840 C.ar    
  14 C14            6.5043     2.4758    -1.2547 C.ar    
  15 N15            8.2505     3.6809     2.2899 N.2     
  16 C16            9.2969     4.4693     2.3072 C.2     
  17 N17            9.8048     5.0124     1.1722 N.am    
  18 C18            9.3451     4.6134    -0.0455 C.2     
  19 C19            9.9357     4.6983     3.6517 C.3     
  20 C20           10.7848     5.9496     3.6901 C.3     
  21 C21           11.6363     6.1019     2.4462 C.3     
  22 C22           10.8124     6.0675     1.1789 C.3     
  23 O23            9.8824     4.9893    -1.0711 O.2     
  24 C24           12.3827     7.4356     2.5164 C.3     
  25 C25           12.6596     4.9654     2.4035 C.3     
  26 H26           -0.9522     1.9233     0.0170 H       
  27 H27           -0.9223    -0.5625     0.0082 H       
  28 H28            1.2357    -1.7429    -0.0187 H       
  29 H29            1.2130     3.1401     0.0070 H       
  30 H30            4.7627     0.5443     0.8495 H       
  31 H31            4.7457     0.5538    -0.9303 H       
  32 H32            6.0886     2.1372     2.0855 H       
  33 H33            8.0251     3.6173    -2.2284 H       
  34 H34            6.0543     2.1501    -2.1809 H       
  35 H35            9.1515     4.7821     4.4041 H       
  36 H36           10.5626     3.8402     3.8940 H       
  37 H37           10.1317     6.8176     3.7802 H       
  38 H38           11.4371     5.9078     4.5623 H       
  39 H39           11.4810     5.9176     0.3312 H       
  40 H40           10.3125     7.0289     1.0607 H       
  41 H41           13.0182     7.4501     3.4019 H       
  42 H42           12.9986     7.5546     1.6251 H       
  43 H43           11.6629     8.2523     2.5724 H       
  44 H44           12.1388     4.0082     2.3784 H       
  45 H45           13.2776     5.0663     1.5113 H       
  46 H46           13.2916     5.0119     3.2904 H       
@<TRIPOS>BOND
   1    1    2 ar
   2    1    6 ar
   3    1   26 1
   4    2    3 ar
   5    2   27 1
   6    3    4 ar
   7    3   28 1
   8    4    5 ar
   9    5    6 ar
  10    5    7 1
  11    6   29 1
  12    7    8 1
  13    8    9 1
  14    8   30 1
  15    8   31 1
  16    9   10 ar
  17    9   14 ar
  18   10   11 ar
  19   10   32 1
  20   11   12 ar
  21   11   15 1
  22   12   13 ar
  23   12   18 1
  24   13   14 ar
  25   13   33 1
  26   14   34 1
  27   15   16 2
  28   16   17 1
  29   16   19 1
  30   17   18 am
  31   17   22 1
  32   18   23 2
  33   19   20 1
  34   19   35 1
  35   19   36 1
  36   20   21 1
  37   20   37 1
  38   20   38 1
  39   21   22 1
  40   21   24 1
  41   21   25 1
  42   22   39 1
  43   22   40 1
  44   24   41 1
  45   24   42 1
  46   24   43 1
  47   25   44 1
  48   25   45 1
  49   25   46 1

#	End of record

