#	Name: ASD01911256
#	Creating user name:	WinNT
#	Creation time:	15. 06. 2019 19:57

#	Modifying user name:	WinNT
#	Modification time:	15. 06. 2019 19:57

#	Program:	/corina/corina34_cracker 3.40 0067  02.08.2006

@<TRIPOS>MOLECULE
ASD01911256
  29   30    0    0    0
SMALL
NO_CHARGES


@<TRIPOS>ATOM
   1 C1            -0.0184     1.5028     0.0103 C.2     
   2 C2             0.0021    -0.0041     0.0020 C.3     
   3 C3             1.4295    -0.4870    -0.0142 C.2     
   4 O4             1.0235     2.1234     0.0037 O.2     
   5 O5             2.3405     0.3135    -0.0186 O.2     
   6 C6             1.7177    -1.9286    -0.0247 C.ar    
   7 C7             3.0421    -2.3804    -0.0398 C.ar    
   8 C8             3.3052    -3.7324    -0.0496 C.ar    
   9 C9             2.2609    -4.6455    -0.0446 C.ar    
  10 C10            0.9458    -4.2043    -0.0296 C.ar    
  11 C11            0.6689    -2.8550    -0.0139 C.ar    
  12 F12            2.5257    -5.9702    -0.0547 F       
  13 C13           -1.3014     2.2205     0.0203 C.ar    
  14 C14           -1.3239     3.6197     0.0280 C.ar    
  15 C15           -2.5295     4.2860     0.0374 C.ar    
  16 C16           -3.7194     3.5731     0.0392 C.ar    
  17 C17           -3.7042     2.1860     0.0316 C.ar    
  18 C18           -2.5055     1.5074     0.0163 C.ar    
  19 F19           -4.8985     4.2326     0.0489 F       
  20 H20           -0.4983    -0.3791     0.8948 H       
  21 H21           -0.5153    -0.3696    -0.8850 H       
  22 H22            3.8561    -1.6706    -0.0441 H       
  23 H23            4.3269    -4.0825    -0.0616 H       
  24 H24            0.1373    -4.9203    -0.0258 H       
  25 H25           -0.3553    -2.5128     0.0022 H       
  26 H26           -0.3981     4.1759     0.0270 H       
  27 H27           -2.5482     5.3658     0.0437 H       
  28 H28           -4.6342     1.6369     0.0331 H       
  29 H29           -2.4950     0.4275     0.0059 H       
@<TRIPOS>BOND
   1    1    2 1
   2    1    4 2
   3    1   13 1
   4    2    3 1
   5    2   20 1
   6    2   21 1
   7    3    5 2
   8    3    6 1
   9    6    7 ar
  10    6   11 ar
  11    7    8 ar
  12    7   22 1
  13    8    9 ar
  14    8   23 1
  15    9   10 ar
  16    9   12 1
  17   10   11 ar
  18   10   24 1
  19   11   25 1
  20   13   14 ar
  21   13   18 ar
  22   14   15 ar
  23   14   26 1
  24   15   16 ar
  25   15   27 1
  26   16   17 ar
  27   16   19 1
  28   17   18 ar
  29   17   28 1
  30   18   29 1

#	End of record

