#	Name: ASD09116419
#	Creating user name:	WinNT
#	Creation time:	15. 06. 2019 21:21

#	Modifying user name:	WinNT
#	Modification time:	15. 06. 2019 21:21

#	Program:	/corina/corina34_cracker 3.40 0067  02.08.2006

@<TRIPOS>MOLECULE
ASD09116419
  83   89    0    0    0
SMALL
NO_CHARGES


@<TRIPOS>ATOM
   1 N1            -0.5549     3.8898    -0.5599 N.2     
   2 N2            -1.0808     4.8979    -1.3839 N.pl3   
   3 C3             0.7512     3.9571    -0.6589 C.2     
   4 N4             1.0745     4.9488    -1.4971 N.2     
   5 C5            -0.0203     5.5265    -1.9433 C.2     
   6 N6            -0.0774     6.5872    -2.8271 N.pl3   
   7 C7            -2.4302     5.1929    -1.5869 C.ar    
   8 N8             1.6572     3.1283     0.0030 N.pl3   
   9 C9             3.0286     3.3710    -0.0989 C.ar    
  10 C10            3.5023     4.6670    -0.3002 C.ar    
  11 C11            3.9377     2.3238     0.0050 C.ar    
  12 N12            5.2320     2.5432    -0.0889 N.ar    
  13 C13            5.7203     3.7629    -0.2856 C.ar    
  14 C14            4.8673     4.8622    -0.3948 C.ar    
  15 N15           -2.7929     6.4110    -1.9603 N.ar    
  16 N16           -4.0217     6.7370    -2.1511 N.ar    
  17 C17           -5.0045     5.8668    -1.9829 C.ar    
  18 C18           -4.7150     4.5511    -1.6101 C.ar    
  19 C19           -3.3975     4.2019    -1.4016 C.ar    
  20 C20           -6.4246     6.2540    -2.1493 C.ar    
  21 C21           -7.3372     5.9179    -1.1482 C.ar    
  22 C22           -6.8479     5.2242     0.0935 C.3     
  23 C23           -6.5792     3.7441    -0.1648 C.3     
  24 C24           -5.8277     3.5522    -1.4795 C.3     
  25 C25           -6.8542     6.9373    -3.2816 C.ar    
  26 C26           -8.1897     7.2637    -3.4174 C.ar    
  27 C27           -9.0945     6.9104    -2.4328 C.ar    
  28 C28           -8.6693     6.2377    -1.3002 C.ar    
  29 C29            7.1810     3.9585    -0.3837 C.2     
  30 C30            7.9980     2.9192    -0.2756 C.2     
  31 C31            9.4884     3.1187    -0.3757 C.3     
  32 N32           10.1382     2.5634     0.8190 N.3     
  33 C33           11.5969     2.5240     0.6545 C.3     
  34 C34           12.2275     1.8092     1.8517 C.3     
  35 C35           11.8601     2.5557     3.1371 C.3     
  36 C36           10.3354     2.6248     3.2599 C.3     
  37 C37            9.7596     3.3159     2.0218 C.3     
  38 N38           12.4140     1.8413     4.2951 N.3     
  39 C39           12.1826     2.5914     5.5361 C.3     
  40 C40           12.6404     1.7543     6.7326 C.3     
  41 C41           14.1288     1.4279     6.5814 C.3     
  42 C42           14.3495     0.6895     5.2583 C.3     
  43 C43           13.8421     1.5575     4.1045 C.3     
  44 H44            0.7416     6.9728    -3.1757 H       
  45 H45           -0.9366     6.9462    -3.0990 H       
  46 H46            1.3346     2.3835     0.5341 H       
  47 H47            2.8184     5.4989    -0.3807 H       
  48 H48            3.5773     1.3184     0.1650 H       
  49 H49            5.2685     5.8520    -0.5551 H       
  50 H50           -3.1242     3.2019    -1.0988 H       
  51 H51           -5.9267     5.7007     0.4286 H       
  52 H52           -7.6017     5.3186     0.8752 H       
  53 H53           -5.9816     3.3400     0.6523 H       
  54 H54           -7.5282     3.2101    -0.2127 H       
  55 H55           -6.5217     3.6779    -2.3106 H       
  56 H56           -5.4111     2.5455    -1.5105 H       
  57 H57           -6.1475     7.2118    -4.0507 H       
  58 H58           -8.5279     7.7960    -4.2942 H       
  59 H59          -10.1386     7.1609    -2.5482 H       
  60 H60           -9.3812     5.9638    -0.5356 H       
  61 H61            7.5839     4.9477    -0.5435 H       
  62 H62            7.5952     1.9299    -0.1157 H       
  63 H63            9.8643     2.6100    -1.2634 H       
  64 H64            9.7084     4.1839    -0.4469 H       
  65 H65           11.8447     1.9868    -0.2610 H       
  66 H66           11.9831     3.5415     0.5943 H       
  67 H67           11.8521     0.7872     1.9044 H       
  68 H68           13.3113     1.7939     1.7369 H       
  69 H69           12.2688     3.5655     3.1014 H       
  70 H70            9.9303     1.6156     3.3348 H       
  71 H71           10.0674     3.1922     4.1511 H       
  72 H72           10.1545     4.3297     1.9552 H       
  73 H73            8.6731     3.3540     2.0995 H       
  74 H74           12.7471     3.5234     5.5077 H       
  75 H75           11.1199     2.8134     5.6336 H       
  76 H76           12.4830     2.3176     7.6524 H       
  77 H77           12.0667     0.8282     6.7696 H       
  78 H78           14.7064     2.3523     6.5835 H       
  79 H79           14.4490     0.7954     7.4094 H       
  80 H80           15.4131     0.4921     5.1247 H       
  81 H81           13.8027    -0.2533     5.2721 H       
  82 H82           13.9847     1.0286     3.1622 H       
  83 H83           14.3988     2.4944     4.0829 H       
@<TRIPOS>BOND
   1    1    2 1
   2    1    3 2
   3    2    7 1
   4    2    5 1
   5    3    4 1
   6    3    8 1
   7    4    5 2
   8    5    6 1
   9    6   44 1
  10    6   45 1
  11    7   15 ar
  12    7   19 ar
  13    8    9 1
  14    8   46 1
  15    9   10 ar
  16    9   11 ar
  17   10   14 ar
  18   10   47 1
  19   11   12 ar
  20   11   48 1
  21   12   13 ar
  22   13   14 ar
  23   13   29 1
  24   14   49 1
  25   15   16 ar
  26   16   17 ar
  27   17   18 ar
  28   17   20 1
  29   18   19 ar
  30   18   24 1
  31   19   50 1
  32   20   21 ar
  33   20   25 ar
  34   21   22 1
  35   21   28 ar
  36   22   23 1
  37   22   51 1
  38   22   52 1
  39   23   24 1
  40   23   53 1
  41   23   54 1
  42   24   55 1
  43   24   56 1
  44   25   26 ar
  45   25   57 1
  46   26   27 ar
  47   26   58 1
  48   27   28 ar
  49   27   59 1
  50   28   60 1
  51   29   30 2
  52   29   61 1
  53   30   31 1
  54   30   62 1
  55   31   32 1
  56   31   63 1
  57   31   64 1
  58   32   33 1
  59   32   37 1
  60   33   34 1
  61   33   65 1
  62   33   66 1
  63   34   35 1
  64   34   67 1
  65   34   68 1
  66   35   36 1
  67   35   38 1
  68   35   69 1
  69   36   37 1
  70   36   70 1
  71   36   71 1
  72   37   72 1
  73   37   73 1
  74   38   39 1
  75   38   43 1
  76   39   40 1
  77   39   74 1
  78   39   75 1
  79   40   41 1
  80   40   76 1
  81   40   77 1
  82   41   42 1
  83   41   78 1
  84   41   79 1
  85   42   43 1
  86   42   80 1
  87   42   81 1
  88   43   82 1
  89   43   83 1

#	End of record

