#	Name: ASD08070342
#	Creating user name:	WinNT
#	Creation time:	15. 06. 2019 21:14

#	Modifying user name:	WinNT
#	Modification time:	15. 06. 2019 21:14

#	Program:	/corina/corina34_cracker 3.40 0067  02.08.2006

@<TRIPOS>MOLECULE
ASD08070342
  34   34    0    0    0
SMALL
NO_CHARGES


@<TRIPOS>ATOM
   1 C1            -0.0179     1.4713     0.0101 C.2     
   2 C2             0.0021    -0.0041     0.0020 C.ar    
   3 C3             0.0232    -0.7133     1.2074 C.ar    
   4 C4             0.0414    -2.0971     1.1917 C.ar    
   5 C5             0.0388    -2.7794    -0.0132 C.ar    
   6 C6             0.0184    -2.0842    -1.2106 C.ar    
   7 C7            -0.0058    -0.7004    -1.2110 C.ar    
   8 O8             1.0266     2.0935     0.0035 O.2     
   9 N9            -1.1942     2.1293     0.0193 N.am    
  10 C10           -1.1021     4.1136    -1.4074 C.3     
  11 C11           -1.2140     3.5941     0.0273 C.3     
  12 C12           -2.5253     4.0830     0.6459 C.3     
  13 C13           -2.6372     3.5635     2.0806 C.3     
  14 C14           -2.5460     5.6128     0.6543 C.3     
  15 C15            0.0587    -4.2863    -0.0215 C.3     
  16 F16           -0.0313    -0.0239    -2.3801 F       
  17 F17            0.0165    -2.7585    -2.3813 F       
  18 F18            0.0622    -2.7839     2.3549 F       
  19 F19            0.0262    -0.0493     2.3839 F       
  20 H20           -2.0275     1.6329     0.0205 H       
  21 H21           -1.9416     3.7421    -1.9949 H       
  22 H22           -1.1168     5.2035    -1.4014 H       
  23 H23           -0.1679     3.7653    -1.8481 H       
  24 H24           -0.3744     3.9657     0.6148 H       
  25 H25           -3.3649     3.7115     0.0584 H       
  26 H26           -3.5714     3.9118     2.5213 H       
  27 H27           -2.6225     2.4736     2.0746 H       
  28 H28           -1.7977     3.9351     2.6681 H       
  29 H29           -2.4662     5.9829    -0.3679 H       
  30 H30           -3.4802     5.9611     1.0949 H       
  31 H31           -1.7064     5.9844     1.2418 H       
  32 H32           -0.9641    -4.6632    -0.0136 H       
  33 H33            0.5686    -4.6380    -0.9184 H       
  34 H34            0.5859    -4.6475     0.8614 H       
@<TRIPOS>BOND
   1    1    2 1
   2    1    8 2
   3    1    9 am
   4    2    3 ar
   5    2    7 ar
   6    3    4 ar
   7    3   19 1
   8    4    5 ar
   9    4   18 1
  10    5    6 ar
  11    5   15 1
  12    6    7 ar
  13    6   17 1
  14    7   16 1
  15    9   11 1
  16    9   20 1
  17   10   11 1
  18   10   21 1
  19   10   22 1
  20   10   23 1
  21   11   12 1
  22   11   24 1
  23   12   13 1
  24   12   14 1
  25   12   25 1
  26   13   26 1
  27   13   27 1
  28   13   28 1
  29   14   29 1
  30   14   30 1
  31   14   31 1
  32   15   32 1
  33   15   33 1
  34   15   34 1

#	End of record

