#	Name: ASD01900238
#	Creating user name:	WinNT
#	Creation time:	15. 06. 2019 19:51

#	Modifying user name:	WinNT
#	Modification time:	15. 06. 2019 19:51

#	Program:	/corina/corina34_cracker 3.40 0067  02.08.2006

@<TRIPOS>MOLECULE
ASD01900238
  39   41    0    0    0
SMALL
NO_CHARGES


@<TRIPOS>ATOM
   1 N1            -0.0158     1.3111     0.0093 N.ar    
   2 C2             0.0021    -0.0041     0.0020 C.ar    
   3 C3             1.2003    -0.6994    -0.0132 C.ar    
   4 C4             2.3946     0.0046    -0.0208 C.ar    
   5 C5             2.3456     1.3895    -0.0129 C.ar    
   6 C6             1.1046     2.0227     0.0024 C.ar    
   7 C7             1.0350     3.5023     0.0110 C.2     
   8 O8             2.0579     4.1589     0.0047 O.2     
   9 N9            -0.1625     4.1206     0.0257 N.am    
  10 C10           -0.2285     5.5252     0.0339 C.2     
  11 C11            0.3729     7.6688     0.0350 C.2     
  12 C12            0.8686     6.4151     0.0220 C.2     
  13 C13           -1.3551     6.2752     0.0487 C.2     
  14 N14           -0.9880     7.5927     0.0514 N.am    
  15 S15           -2.0259     8.8829     0.0719 S.o2    
  16 O16           -3.2016     8.3772     0.6893 O.2     
  17 O17           -1.2741     9.9280     0.6735 O.2     
  18 C18           -2.3320     9.2455    -1.6790 C.3     
  19 C19           -3.2745    10.4158    -1.7923 C.ar    
  20 C20           -5.5075    11.2773    -1.9347 C.ar    
  21 C21           -4.6419    10.2019    -1.8310 C.ar    
  22 C22           -2.7738    11.7029    -1.8519 C.ar    
  23 C23           -3.6370    12.7771    -1.9550 C.ar    
  24 C24           -5.0049    12.5652    -1.9991 C.ar    
  25 F25           -5.1311     8.9442    -1.7680 F       
  26 F26           -5.8485    13.6155    -2.1003 F       
  27 H27           -0.9301    -0.5494     0.0084 H       
  28 H28            1.2040    -1.7794    -0.0186 H       
  29 H29            3.3416    -0.5144    -0.0323 H       
  30 H30            3.2565     1.9698    -0.0185 H       
  31 H31           -0.9788     3.5966     0.0307 H       
  32 H32            0.9550     8.5786     0.0313 H       
  33 H33            1.9131     6.1412     0.0061 H       
  34 H34           -2.3673     5.8989     0.0569 H       
  35 H35           -1.3896     9.4890    -2.1697 H       
  36 H36           -2.7764     8.3732    -2.1583 H       
  37 H37           -6.5743    11.1113    -1.9652 H       
  38 H38           -1.7073    11.8691    -1.8176 H       
  39 H39           -3.2447    13.7823    -2.0008 H       
@<TRIPOS>BOND
   1    1    2 ar
   2    1    6 ar
   3    2    3 ar
   4    2   27 1
   5    3    4 ar
   6    3   28 1
   7    4    5 ar
   8    4   29 1
   9    5    6 ar
  10    5   30 1
  11    6    7 1
  12    7    8 2
  13    7    9 am
  14    9   10 1
  15    9   31 1
  16   10   13 2
  17   10   12 1
  18   11   12 2
  19   11   14 1
  20   11   32 1
  21   12   33 1
  22   13   14 1
  23   13   34 1
  24   14   15 am
  25   15   16 2
  26   15   17 2
  27   15   18 1
  28   18   19 1
  29   18   35 1
  30   18   36 1
  31   19   22 ar
  32   19   21 ar
  33   20   21 ar
  34   20   24 ar
  35   20   37 1
  36   21   25 1
  37   22   23 ar
  38   22   38 1
  39   23   24 ar
  40   23   39 1
  41   24   26 1

#	End of record

