#	Name: ASD01815824
#	Creating user name:	WinNT
#	Creation time:	15. 06. 2019 19:34

#	Modifying user name:	WinNT
#	Modification time:	15. 06. 2019 19:34

#	Program:	/corina/corina34_cracker 3.40 0067  02.08.2006

@<TRIPOS>MOLECULE
ASD01815824
  57   62    0    0    0
SMALL
NO_CHARGES


@<TRIPOS>ATOM
   1 C1            -0.0168     1.3869     0.0097 C.ar    
   2 C2             0.0021    -0.0041     0.0020 C.ar    
   3 C3             1.1801    -0.6897    -0.0129 C.ar    
   4 C4             2.3948     0.0129    -0.0207 C.ar    
   5 C5             2.3717     1.4290    -0.0129 C.ar    
   6 C6             1.1455     2.1015     0.0024 C.ar    
   7 C7             3.6293    -0.6694    -0.0365 C.ar    
   8 C8             4.8031     0.0063    -0.0446 C.ar    
   9 C9             4.8359     1.4095    -0.0374 C.ar    
  10 C10            3.6406     2.1511    -0.0211 C.ar    
  11 C11            6.1026     2.1526    -0.0470 C.2     
  12 N12            6.0328     3.5041    -0.0399 N.am    
  13 C13            4.8302     4.1313    -0.0241 C.2     
  14 N14            3.6961     3.4935    -0.0158 N.2     
  15 C15            7.2655     4.2957    -0.0490 C.3     
  16 C16            7.2933     5.1850    -1.2948 C.3     
  17 C17            7.3154     5.1796     1.2010 C.3     
  18 C18            8.5686     6.0583     1.1419 C.3     
  19 C19            8.5461     6.8796    -0.1499 C.3     
  20 O20            8.4682     5.9980    -1.2719 O.3     
  21 O21            7.1745     1.5748    -0.0604 O.2     
  22 C22            3.6424    -2.1763    -0.0442 C.3     
  23 C23            3.5087    -2.6726    -1.4608 C.ar    
  24 C24            4.6381    -2.8926    -2.2363 C.ar    
  25 C25            4.4703    -3.3492    -3.5326 C.ar    
  26 C26            3.1848    -3.5703    -4.0101 C.ar    
  27 N27            2.1320    -3.3487    -3.2395 N.ar    
  28 C28            2.2604    -2.9189    -1.9994 C.ar    
  29 O29            7.3639     4.3556     2.3675 O.3     
  30 N30            3.0014    -4.0310    -5.3174 N.pl3   
  31 C31            1.8092    -4.2896    -5.9151 C.2     
  32 C32            2.0659    -4.7143    -7.1736 C.2     
  33 C33            3.4537    -4.7165    -7.3539 C.2     
  34 N34            4.0140    -4.3023    -6.2467 N.2     
  35 H35           -0.9630     1.9076     0.0169 H       
  36 H36           -0.9305    -0.5488     0.0083 H       
  37 H37            1.1786    -1.7697    -0.0183 H       
  38 H38            1.1188     3.1811     0.0081 H       
  39 H39            5.7317    -0.5451    -0.0563 H       
  40 H40            4.8132     5.2111    -0.0182 H       
  41 H41            8.1271     3.6280    -0.0588 H       
  42 H42            7.3011     4.5598    -2.1876 H       
  43 H43            6.4097     5.8233    -1.3055 H       
  44 H44            6.4281     5.8118     1.2362 H       
  45 H45            8.5834     6.7299     2.0003 H       
  46 H46            9.4571     5.4271     1.1568 H       
  47 H47            7.6789     7.5400    -0.1457 H       
  48 H48            9.4564     7.4751    -0.2180 H       
  49 H49            4.5813    -2.5336     0.3789 H       
  50 H50            2.8098    -2.5499     0.5518 H       
  51 H51            5.6255    -2.7114    -1.8380 H       
  52 H52            5.3274    -3.5307    -4.1641 H       
  53 H53            1.3782    -2.7494    -1.3999 H       
  54 H54            7.3971     4.8505     3.1976 H       
  55 H55            0.8333    -4.1772    -5.4665 H       
  56 H56            1.3294    -5.0011    -7.9096 H       
  57 H57            3.9734    -5.0061    -8.2553 H       
@<TRIPOS>BOND
   1    1    2 ar
   2    1    6 ar
   3    1   35 1
   4    2    3 ar
   5    2   36 1
   6    3    4 ar
   7    3   37 1
   8    4    5 ar
   9    4    7 ar
  10    5    6 ar
  11    5   10 ar
  12    6   38 1
  13    7    8 ar
  14    7   22 1
  15    8    9 ar
  16    8   39 1
  17    9   10 ar
  18    9   11 1
  19   10   14 1
  20   11   12 am
  21   11   21 2
  22   12   13 1
  23   12   15 1
  24   13   14 2
  25   13   40 1
  26   15   16 1
  27   15   17 1
  28   15   41 1
  29   16   20 1
  30   16   42 1
  31   16   43 1
  32   17   18 1
  33   17   29 1
  34   17   44 1
  35   18   19 1
  36   18   45 1
  37   18   46 1
  38   19   20 1
  39   19   47 1
  40   19   48 1
  41   22   23 1
  42   22   49 1
  43   22   50 1
  44   23   24 ar
  45   23   28 ar
  46   24   25 ar
  47   24   51 1
  48   25   26 ar
  49   25   52 1
  50   26   27 ar
  51   26   30 1
  52   27   28 ar
  53   28   53 1
  54   29   54 1
  55   30   31 1
  56   30   34 1
  57   31   32 2
  58   31   55 1
  59   32   33 1
  60   32   56 1
  61   33   34 2
  62   33   57 1

#	End of record

