#	Name: ASD01150777
#	Creating user name:	WinNT
#	Creation time:	15. 06. 2019 19:05

#	Modifying user name:	WinNT
#	Modification time:	15. 06. 2019 19:05

#	Program:	/corina/corina34_cracker 3.40 0067  02.08.2006

@<TRIPOS>MOLECULE
ASD01150777
  60   63    0    0    0
SMALL
NO_CHARGES


@<TRIPOS>ATOM
   1 C1             0.0404     1.4788     0.4555 C.2     
   2 C2            -0.8244     1.0315    -0.6948 C.3     
   3 N3             3.4364     2.7922    -0.2041 N.ar    
   4 C4             2.4441     1.9672     0.0042 C.ar    
   5 C5             1.1336     2.4292     0.2249 C.ar    
   6 C6             0.8846     3.8135     0.2213 C.ar    
   7 C7             1.9823     4.6795    -0.0076 C.ar    
   8 C8             1.8150     6.0699    -0.0267 C.ar    
   9 C9             2.9069     6.8824    -0.2531 C.ar    
  10 C10            4.1734     6.3262    -0.4624 C.ar    
  11 C11            4.3572     4.9781    -0.4477 C.ar    
  12 C12            3.2672     4.1214    -0.2202 C.ar    
  13 C13            2.7105     0.4839     0.0076 C.3     
  14 N14            2.7468     8.2693    -0.2739 N.3     
  15 C15            4.0263     8.9431    -0.5292 C.3     
  16 C16            3.8418    10.4568    -0.4009 C.3     
  17 C17            2.7874    10.9247    -1.4078 C.3     
  18 C18            1.4786    10.1727    -1.1511 C.3     
  19 C19            1.7317     8.6671    -1.2576 C.3     
  20 O20            2.5697    12.3286    -1.2537 O.3     
  21 C21            2.1865    12.9931    -2.4594 C.3     
  22 C22           -0.4749     4.3462     0.4479 C.ar    
  23 C23           -1.1044     4.1611     1.6808 C.ar    
  24 C24           -2.3733     4.6614     1.8856 C.ar    
  25 C25           -3.0227     5.3454     0.8730 C.ar    
  26 C26           -2.4051     5.5320    -0.3512 C.ar    
  27 C27           -1.1340     5.0421    -0.5679 C.ar    
  28 S28           -4.6436     5.9811     1.1434 S.o2    
  29 O29           -5.2194     6.0364    -0.1546 O.2     
  30 O30           -5.1869     5.1387     2.1506 O.2     
  31 C31           -4.3717     7.6536     1.7909 C.3     
  32 F32           -2.1320     1.4894    -0.5007 F       
  33 F33           -0.3192     1.5558    -1.8894 F       
  34 F34           -0.8248    -0.3659    -0.7621 F       
  35 O35           -0.1708     1.0566     1.5731 O.2     
  36 H36            0.8387     6.5028     0.1341 H       
  37 H37            5.0175     6.9764    -0.6385 H       
  38 H38            5.3420     4.5661    -0.6112 H       
  39 H39            2.8637     0.1446     1.0320 H       
  40 H40            1.8576    -0.0393    -0.4247 H       
  41 H41            3.6027     0.2736    -0.5821 H       
  42 H42            4.7661     8.6046     0.1963 H       
  43 H43            4.3687     8.7030    -1.5357 H       
  44 H44            3.5126    10.6990     0.6096 H       
  45 H45            4.7881    10.9575    -0.6057 H       
  46 H46            3.1338    10.7179    -2.4205 H       
  47 H47            1.1123    10.4103    -0.1524 H       
  48 H48            0.7365    10.4703    -1.8919 H       
  49 H49            2.0848     8.4283    -2.2608 H       
  50 H50            0.8048     8.1283    -1.0612 H       
  51 H51            2.9698    12.8693    -3.2072 H       
  52 H52            1.2571    12.5625    -2.8320 H       
  53 H53            2.0404    14.0545    -2.2586 H       
  54 H54           -0.5989     3.6271     2.4719 H       
  55 H55           -2.8614     4.5187     2.8384 H       
  56 H56           -2.9177     6.0665    -1.1374 H       
  57 H57           -0.6513     5.1926    -1.5222 H       
  58 H58           -3.8209     8.2422     1.0572 H       
  59 H59           -5.3331     8.1274     1.9889 H       
  60 H60           -3.7975     7.5963     2.7156 H       
@<TRIPOS>BOND
   1    1    2 1
   2    1    5 1
   3    1   35 2
   4    2   32 1
   5    2   33 1
   6    2   34 1
   7    3    4 ar
   8    3   12 ar
   9    4    5 ar
  10    4   13 1
  11    5    6 ar
  12    6    7 ar
  13    6   22 1
  14    7    8 ar
  15    7   12 ar
  16    8    9 ar
  17    8   36 1
  18    9   10 ar
  19    9   14 1
  20   10   11 ar
  21   10   37 1
  22   11   12 ar
  23   11   38 1
  24   13   39 1
  25   13   40 1
  26   13   41 1
  27   14   15 1
  28   14   19 1
  29   15   16 1
  30   15   42 1
  31   15   43 1
  32   16   17 1
  33   16   44 1
  34   16   45 1
  35   17   18 1
  36   17   20 1
  37   17   46 1
  38   18   19 1
  39   18   47 1
  40   18   48 1
  41   19   49 1
  42   19   50 1
  43   20   21 1
  44   21   51 1
  45   21   52 1
  46   21   53 1
  47   22   23 ar
  48   22   27 ar
  49   23   24 ar
  50   23   54 1
  51   24   25 ar
  52   24   55 1
  53   25   26 ar
  54   25   28 1
  55   26   27 ar
  56   26   56 1
  57   27   57 1
  58   28   29 2
  59   28   30 2
  60   28   31 1
  61   31   58 1
  62   31   59 1
  63   31   60 1

#	End of record

