#	Name: ASD01209342
#	Creating user name:	WinNT
#	Creation time:	15. 06. 2019 19:11

#	Modifying user name:	WinNT
#	Modification time:	15. 06. 2019 19:11

#	Program:	/corina/corina34_cracker 3.40 0067  02.08.2006

@<TRIPOS>MOLECULE
ASD01209342
  65   68    0    0    0
SMALL
NO_CHARGES


@<TRIPOS>ATOM
   1 C1            -5.5107    -8.2166    -4.3156 C.2     
   2 N2            -4.7185    -8.0526    -5.3813 N.am    
   3 C3            -3.6086    -8.8124    -5.2972 C.2     
   4 C4            -3.7238    -9.5623    -3.9849 C.3     
   5 N5            -5.0055    -9.0941    -3.4299 N.am    
   6 O6            -6.5662    -7.6340    -4.1625 O.2     
   7 O7            -2.7061    -8.8821    -6.1037 O.2     
   8 C8            -5.0207    -7.1583    -6.5016 C.3     
   9 C9            -4.4497    -5.7920    -6.2218 C.ar    
  10 C10           -3.1636    -5.4847    -6.6247 C.ar    
  11 C11           -2.6397    -4.2315    -6.3680 C.ar    
  12 C12           -3.4022    -3.2854    -5.7089 C.ar    
  13 C13           -4.6887    -3.5924    -5.3068 C.ar    
  14 C14           -5.2140    -4.8442    -5.5673 C.ar    
  15 C15           -2.7069    -1.7193    -3.9164 C.3     
  16 C16           -2.8308    -1.9195    -5.4282 C.3     
  17 C17           -1.4483    -1.8026    -6.0731 C.3     
  18 C18           -4.0887    -0.9013    -7.3367 C.ar    
  19 C19           -3.7432    -0.8658    -6.0014 C.ar    
  20 C20           -4.2371     0.1391    -5.1910 C.ar    
  21 C21           -5.0746     1.0983    -5.7224 C.ar    
  22 C22           -5.4248     1.0635    -7.0658 C.ar    
  23 C23           -6.3495     2.1367    -7.5777 C.3     
  24 C24           -6.2853     2.2190    -9.1015 C.3     
  25 C25           -6.4891     0.8103    -9.6712 C.3     
  26 C26           -5.2542    -0.0260    -9.3421 C.3     
  27 C27           -4.9289     0.0650    -7.8741 C.ar    
  28 C28           -5.5215    -1.4869    -9.7099 C.3     
  29 C29           -4.0649     0.4887   -10.1554 C.3     
  30 C30           -7.7826     1.8142    -7.1499 C.3     
  31 C31           -5.9372     3.4842    -6.9819 C.3     
  32 H32           -3.7514   -10.6380    -4.1591 H       
  33 H33           -2.9000    -9.3014    -3.3205 H       
  34 H34           -5.4066    -9.3652    -2.5894 H       
  35 H35           -4.5782    -7.5571    -7.4144 H       
  36 H36           -6.1011    -7.0823    -6.6246 H       
  37 H37           -2.5678    -6.2239    -7.1397 H       
  38 H38           -1.6347    -3.9916    -6.6822 H       
  39 H39           -5.2843    -2.8534    -4.7915 H       
  40 H40           -6.2204    -5.0829    -5.2565 H       
  41 H41           -2.0470    -2.4814    -3.5019 H       
  42 H42           -2.2936    -0.7313    -3.7134 H       
  43 H43           -3.6918    -1.8025    -3.4570 H       
  44 H44           -1.5366    -1.9452    -7.1502 H       
  45 H45           -1.0350    -0.8146    -5.8701 H       
  46 H46           -0.7884    -2.5647    -5.6586 H       
  47 H47           -3.6993    -1.6846    -7.9700 H       
  48 H48           -3.9687     0.1732    -4.1455 H       
  49 H49           -5.4612     1.8825    -5.0884 H       
  50 H50           -7.0712     2.8800    -9.4668 H       
  51 H51           -5.3116     2.6014    -9.4077 H       
  52 H52           -7.3712     0.3559    -9.2199 H       
  53 H53           -6.6170     0.8664   -10.7522 H       
  54 H54           -5.7383    -1.5594   -10.7757 H       
  55 H55           -4.6421    -2.0871    -9.4764 H       
  56 H56           -6.3744    -1.8550    -9.1398 H       
  57 H57           -3.8770     1.5324    -9.9035 H       
  58 H58           -3.1813    -0.1059    -9.9231 H       
  59 H59           -4.2890     0.4062   -11.2189 H       
  60 H60           -7.8366     1.7739    -6.0619 H       
  61 H61           -8.4549     2.5888    -7.5186 H       
  62 H62           -8.0772     0.8500    -7.5642 H       
  63 H63           -4.9130     3.7135    -7.2762 H       
  64 H64           -6.6042     4.2637    -7.3502 H       
  65 H65           -6.0006     3.4355    -5.8948 H       
@<TRIPOS>BOND
   1    1    2 am
   2    1    5 am
   3    1    6 2
   4    2    3 am
   5    2    8 1
   6    3    4 1
   7    3    7 2
   8    4    5 1
   9    4   32 1
  10    4   33 1
  11    5   34 1
  12    8    9 1
  13    8   35 1
  14    8   36 1
  15    9   10 ar
  16    9   14 ar
  17   10   11 ar
  18   10   37 1
  19   11   12 ar
  20   11   38 1
  21   12   13 ar
  22   12   16 1
  23   13   14 ar
  24   13   39 1
  25   14   40 1
  26   15   16 1
  27   15   41 1
  28   15   42 1
  29   15   43 1
  30   16   17 1
  31   16   19 1
  32   17   44 1
  33   17   45 1
  34   17   46 1
  35   18   19 ar
  36   18   27 ar
  37   18   47 1
  38   19   20 ar
  39   20   21 ar
  40   20   48 1
  41   21   22 ar
  42   21   49 1
  43   22   23 1
  44   22   27 ar
  45   23   24 1
  46   23   30 1
  47   23   31 1
  48   24   25 1
  49   24   50 1
  50   24   51 1
  51   25   26 1
  52   25   52 1
  53   25   53 1
  54   26   27 1
  55   26   28 1
  56   26   29 1
  57   28   54 1
  58   28   55 1
  59   28   56 1
  60   29   57 1
  61   29   58 1
  62   29   59 1
  63   30   60 1
  64   30   61 1
  65   30   62 1
  66   31   63 1
  67   31   64 1
  68   31   65 1

#	End of record

