#	Name: ASD01910045
#	Creating user name:	WinNT
#	Creation time:	15. 06. 2019 19:55

#	Modifying user name:	WinNT
#	Modification time:	15. 06. 2019 19:55

#	Program:	/corina/corina34_cracker 3.40 0067  02.08.2006

@<TRIPOS>MOLECULE
ASD01910045
  43   46    0    0    0
SMALL
NO_CHARGES


@<TRIPOS>ATOM
   1 C1             0.3082     1.3960     0.8962 C.ar    
   2 C2             0.3234     0.0152     0.9162 C.ar    
   3 C3             1.1981    -0.6805     0.1016 C.ar    
   4 C4             2.0602     0.0032    -0.7355 C.ar    
   5 C5             2.0502     1.3851    -0.7604 C.ar    
   6 C6             1.1726     2.0864     0.0569 C.ar    
   7 N7             1.1593     3.4872     0.0340 N.pl3   
   8 C8             0.0539     4.2758    -0.0720 C.2     
   9 C9             0.4675     5.5703    -0.0562 C.2     
  10 C10            1.8700     5.5727     0.0633 C.2     
  11 N11            2.2799     4.3228     0.1224 N.2     
  12 N12           -1.2639     3.8347    -0.1778 N.am    
  13 C13           -2.2764     4.7237    -0.1490 C.2     
  14 C14           -3.6740     4.2559    -0.2611 C.ar    
  15 C15           -4.7251     5.1741    -0.2316 C.ar    
  16 C16           -6.0272     4.7308    -0.3372 C.ar    
  17 C17           -6.2925     3.3795    -0.4722 C.ar    
  18 C18           -5.2553     2.4642    -0.5017 C.ar    
  19 C19           -3.9484     2.8946    -0.4028 C.ar    
  20 C20            2.7364     6.7761     0.1192 C.ar    
  21 C21            4.1178     6.6382     0.2390 C.ar    
  22 C22            4.9189     7.7608     0.2906 C.ar    
  23 C23            4.3529     9.0212     0.2239 C.ar    
  24 C24            2.9821     9.1639     0.1053 C.ar    
  25 C25            2.1721     8.0480     0.0462 C.ar    
  26 O26           -2.0403     5.9104    -0.0307 O.2     
  27 Br27           3.2300     2.3199    -1.9049 Br      
  28 H28           -0.3783     1.9382     1.5295 H       
  29 H29           -0.3485    -0.5221     1.5692 H       
  30 H30            1.2080    -1.7603     0.1196 H       
  31 H31            2.7424    -0.5429    -1.3702 H       
  32 H32           -0.1668     6.4418    -0.1237 H       
  33 H33           -1.4523     2.8879    -0.2721 H       
  34 H34           -4.5194     6.2290    -0.1260 H       
  35 H35           -6.8414     5.4400    -0.3142 H       
  36 H36           -7.3136     3.0378    -0.5545 H       
  37 H37           -5.4692     1.4108    -0.6065 H       
  38 H38           -3.1397     2.1790    -0.4259 H       
  39 H39            4.5608     5.6546     0.2919 H       
  40 H40            5.9897     7.6551     0.3834 H       
  41 H41            4.9834     9.8970     0.2649 H       
  42 H42            2.5453    10.1504     0.0544 H       
  43 H43            1.1020     8.1606    -0.0467 H       
@<TRIPOS>BOND
   1    1    2 ar
   2    1    6 ar
   3    1   28 1
   4    2    3 ar
   5    2   29 1
   6    3    4 ar
   7    3   30 1
   8    4    5 ar
   9    4   31 1
  10    5    6 ar
  11    5   27 1
  12    6    7 1
  13    7    8 1
  14    7   11 1
  15    8    9 2
  16    8   12 1
  17    9   10 1
  18    9   32 1
  19   10   11 2
  20   10   20 1
  21   12   13 am
  22   12   33 1
  23   13   14 1
  24   13   26 2
  25   14   15 ar
  26   14   19 ar
  27   15   16 ar
  28   15   34 1
  29   16   17 ar
  30   16   35 1
  31   17   18 ar
  32   17   36 1
  33   18   19 ar
  34   18   37 1
  35   19   38 1
  36   20   21 ar
  37   20   25 ar
  38   21   22 ar
  39   21   39 1
  40   22   23 ar
  41   22   40 1
  42   23   24 ar
  43   23   41 1
  44   24   25 ar
  45   24   42 1
  46   25   43 1

#	End of record

