#	Name: ASD03731603
#	Creating user name:	WinNT
#	Creation time:	15. 06. 2019 20:46

#	Modifying user name:	WinNT
#	Modification time:	15. 06. 2019 20:46

#	Program:	/corina/corina34_cracker 3.40 0067  02.08.2006

@<TRIPOS>MOLECULE
ASD03731603
  37   38    0    0    0
SMALL
NO_CHARGES


@<TRIPOS>ATOM
   1 C1             0.0995     1.4721    -0.0121 C.2     
   2 C2             0.0886    -0.0038    -0.0145 C.ar    
   3 C3             1.2836    -0.7130    -0.1664 C.ar    
   4 C4             1.2689    -2.0914    -0.1681 C.ar    
   5 C5             0.0655    -2.7759    -0.0192 C.ar    
   6 C6            -1.1233    -2.0729     0.1314 C.ar    
   7 C7            -1.1152    -0.6953     0.1408 C.ar    
   8 O8             1.1487     2.0725    -0.1423 O.2     
   9 N9            -1.0543     2.1543     0.1289 N.am    
  10 S10           -1.0421     3.8102     0.1316 S.o2    
  11 O11           -2.4033     4.1704     0.3228 O.2     
  12 O12           -0.0520     4.1518     1.0920 O.2     
  13 C13           -0.4925     4.2615    -1.5372 C.3     
  14 F14            2.4227    -2.7786    -0.3148 F       
  15 O15            0.0538    -4.1331    -0.0217 O.3     
  16 C16            0.2807    -4.7757     1.1551 C.ar    
  17 C17            0.2098    -6.1647     1.2162 C.ar    
  18 C18            0.4417    -6.8150     2.4171 C.ar    
  19 C19            0.7431    -6.0838     3.5527 C.ar    
  20 C20            0.8135    -4.7037     3.4914 C.ar    
  21 C21            0.5886    -4.0496     2.2942 C.ar    
  22 O22           -0.0870    -6.8816     0.0995 O.3     
  23 C23           -0.1427    -8.3029     0.2367 C.3     
  24 Cl24           1.0329    -6.9002     5.0571 Cl      
  25 H25            2.2168    -0.1819    -0.2826 H       
  26 H26           -2.0548    -2.6073     0.2460 H       
  27 H27           -2.0396    -0.1503     0.2629 H       
  28 H28           -1.8918     1.6753     0.2289 H       
  29 H29           -1.1921     3.8610    -2.2708 H       
  30 H30           -0.4549     5.3473    -1.6261 H       
  31 H31            0.4996     3.8476    -1.7174 H       
  32 H32            0.3869    -7.8924     2.4673 H       
  33 H33            1.0487    -4.1362     4.3797 H       
  34 H34            0.6486    -2.9722     2.2480 H       
  35 H35           -0.3882    -8.7515    -0.7259 H       
  36 H36            0.8252    -8.6736     0.5741 H       
  37 H37           -0.9077    -8.5677     0.9667 H       
@<TRIPOS>BOND
   1    1    2 1
   2    1    8 2
   3    1    9 am
   4    2    3 ar
   5    2    7 ar
   6    3    4 ar
   7    3   25 1
   8    4    5 ar
   9    4   14 1
  10    5    6 ar
  11    5   15 1
  12    6    7 ar
  13    6   26 1
  14    7   27 1
  15    9   10 am
  16    9   28 1
  17   10   11 2
  18   10   12 2
  19   10   13 1
  20   13   29 1
  21   13   30 1
  22   13   31 1
  23   15   16 1
  24   16   17 ar
  25   16   21 ar
  26   17   18 ar
  27   17   22 1
  28   18   19 ar
  29   18   32 1
  30   19   20 ar
  31   19   24 1
  32   20   21 ar
  33   20   33 1
  34   21   34 1
  35   22   23 1
  36   23   35 1
  37   23   36 1
  38   23   37 1

#	End of record

