#	Name: ASD04882079
#	Creating user name:	WinNT
#	Creation time:	15. 06. 2019 20:54

#	Modifying user name:	WinNT
#	Modification time:	15. 06. 2019 20:54

#	Program:	/corina/corina34_cracker 3.40 0067  02.08.2006

@<TRIPOS>MOLECULE
ASD04882079
  76   80    0    0    0
SMALL
NO_CHARGES


@<TRIPOS>ATOM
   1 C1             2.1906     1.8442    -0.7956 C.ar    
   2 C2             2.2315     0.4669    -0.7057 C.ar    
   3 C3             1.0526    -0.2533    -0.5581 C.ar    
   4 C4            -0.1635     0.4153    -0.5015 C.ar    
   5 C5            -0.1971     1.7932    -0.5920 C.ar    
   6 C6             0.9780     2.5068    -0.7389 C.ar    
   7 C7            -1.4448    -0.3617    -0.3420 C.3     
   8 N8             1.0902    -1.6466    -0.4673 N.3     
   9 C9             0.6811    -2.0985     0.8698 C.3     
  10 C10            2.4239    -2.1607    -0.8086 C.3     
  11 C11            2.4020    -3.6907    -0.7747 C.3     
  12 N12            1.9928    -4.1426     0.5625 N.3     
  13 C13            0.6591    -3.6284     0.9038 C.3     
  14 C14            2.0303    -5.5317     0.6530 C.ar    
  15 C15            1.2433    -6.3037    -0.1932 C.ar    
  16 C16            2.8639    -6.1478     1.5909 C.ar    
  17 C17            2.9013    -7.5261     1.6802 C.ar    
  18 C18            2.1046    -8.3004     0.8314 C.ar    
  19 C19            1.2773    -7.6782    -0.1072 C.ar    
  20 N20            3.6612    -5.3683     2.4395 N.am    
  21 C21            3.9202    -5.7874     3.6939 C.2     
  22 C22            4.6628    -4.9183     4.6220 C.2     
  23 O23            3.5405    -6.8838     4.0595 O.2     
  24 C24            4.9572    -5.2743     5.8928 C.2     
  25 S25            5.8217    -4.0008     6.6363 S.3     
  26 C26            5.7405    -3.0670     5.2089 C.2     
  27 N27            5.1134    -3.7068     4.2855 N.2     
  28 C28            2.1412    -9.7723     0.9231 C.2     
  29 O29            2.8646   -10.3130     1.7373 O.2     
  30 N30            1.3728   -10.5178     0.1044 N.am    
  31 C31            1.4091   -11.9796     0.1955 C.3     
  32 C32            0.4515   -12.5788    -0.8364 C.3     
  33 C33            0.4894   -14.1054    -0.7413 C.3     
  34 N34           -0.4275   -14.6791    -1.7293 N.am    
  35 C35           -0.0498   -15.0320    -3.1029 C.3     
  36 C36           -1.3813   -15.1717    -3.8735 C.3     
  37 C37           -2.3682   -15.5238    -2.7364 C.3     
  38 C38           -1.7215   -14.9554    -1.4925 C.2     
  39 O39           -2.2898   -14.7692    -0.4373 O.2     
  40 C40            6.3267    -1.6877     5.0509 C.3     
  41 H41            3.1071     2.4049    -0.9058 H       
  42 H42            3.1787    -0.0500    -0.7504 H       
  43 H43           -1.1424     2.3137    -0.5480 H       
  44 H44            0.9489     3.5841    -0.8090 H       
  45 H45           -1.6333    -0.5382     0.7170 H       
  46 H46           -2.2707     0.2080    -0.7680 H       
  47 H47           -1.3573    -1.3170    -0.8595 H       
  48 H48            1.3892    -1.7284     1.6112 H       
  49 H49           -0.3144    -1.7154     1.0943 H       
  50 H50            2.6991    -1.8231    -1.8078 H       
  51 H51            3.1519    -1.7914    -0.0863 H       
  52 H52            1.6938    -4.0608    -1.5161 H       
  53 H53            3.3974    -4.0738    -0.9992 H       
  54 H54            0.3839    -3.9661     1.9030 H       
  55 H55           -0.0688    -3.9978     0.1814 H       
  56 H56            0.6033    -5.8250    -0.9197 H       
  57 H57            3.5448    -8.0043     2.4038 H       
  58 H58            0.6614    -8.2753    -0.7633 H       
  59 H59            4.0268    -4.5270     2.1240 H       
  60 H60            4.6896    -6.2099     6.3614 H       
  61 H61            0.7957   -10.0866    -0.5451 H       
  62 H62            2.4220   -12.3308    -0.0018 H       
  63 H63            1.1056   -12.2889     1.1956 H       
  64 H64           -0.5613   -12.2275    -0.6391 H       
  65 H65            0.7550   -12.2694    -1.8365 H       
  66 H66            1.5023   -14.4566    -0.9385 H       
  67 H67            0.1859   -14.4148     0.2589 H       
  68 H68            0.5588   -14.2412    -3.5416 H       
  69 H69            0.4933   -15.9769    -3.1138 H       
  70 H70           -1.6561   -14.2313    -4.3513 H       
  71 H71           -1.3257   -15.9776    -4.6053 H       
  72 H72           -3.3369   -15.0565    -2.9137 H       
  73 H73           -2.4760   -16.6047    -2.6458 H       
  74 H74            6.8049    -1.3873     5.9832 H       
  75 H75            7.0658    -1.6966     4.2498 H       
  76 H76            5.5334    -0.9817     4.8055 H       
@<TRIPOS>BOND
   1    1    2 ar
   2    1    6 ar
   3    1   41 1
   4    2    3 ar
   5    2   42 1
   6    3    4 ar
   7    3    8 1
   8    4    5 ar
   9    4    7 1
  10    5    6 ar
  11    5   43 1
  12    6   44 1
  13    7   45 1
  14    7   46 1
  15    7   47 1
  16    8    9 1
  17    8   10 1
  18    9   13 1
  19    9   48 1
  20    9   49 1
  21   10   11 1
  22   10   50 1
  23   10   51 1
  24   11   12 1
  25   11   52 1
  26   11   53 1
  27   12   13 1
  28   12   14 1
  29   13   54 1
  30   13   55 1
  31   14   15 ar
  32   14   16 ar
  33   15   19 ar
  34   15   56 1
  35   16   17 ar
  36   16   20 1
  37   17   18 ar
  38   17   57 1
  39   18   19 ar
  40   18   28 1
  41   19   58 1
  42   20   21 am
  43   20   59 1
  44   21   22 1
  45   21   23 2
  46   22   24 2
  47   22   27 1
  48   24   25 1
  49   24   60 1
  50   25   26 1
  51   26   27 2
  52   26   40 1
  53   28   29 2
  54   28   30 am
  55   30   31 1
  56   30   61 1
  57   31   32 1
  58   31   62 1
  59   31   63 1
  60   32   33 1
  61   32   64 1
  62   32   65 1
  63   33   34 1
  64   33   66 1
  65   33   67 1
  66   34   35 1
  67   34   38 am
  68   35   36 1
  69   35   68 1
  70   35   69 1
  71   36   37 1
  72   36   70 1
  73   36   71 1
  74   37   38 1
  75   37   72 1
  76   37   73 1
  77   38   39 2
  78   40   74 1
  79   40   75 1
  80   40   76 1

#	End of record

