#	Name: ASD02270017
#	Creating user name:	WinNT
#	Creation time:	15. 06. 2019 20:20

#	Modifying user name:	WinNT
#	Modification time:	15. 06. 2019 20:20

#	Program:	/corina/corina34_cracker 3.40 0067  02.08.2006

@<TRIPOS>MOLECULE
ASD02270017
  51   54    0    0    0
SMALL
NO_CHARGES


@<TRIPOS>ATOM
   1 C1            -0.0167     1.3820     0.0096 C.ar    
   2 C2             0.0021    -0.0041     0.0020 C.ar    
   3 C3             1.2094    -0.6753    -0.0131 C.ar    
   4 C4             2.4001     0.0302    -0.0202 C.ar    
   5 C5             2.3914     1.4116    -0.0123 C.ar    
   6 C6             1.1849     2.0939     0.0020 C.ar    
   7 N7             0.8514     3.4462     0.0126 N.am    
   8 C8            -0.4907     3.5521     0.0247 C.2     
   9 N9            -1.0426     2.3241     0.0189 N.am    
  10 O10           -1.1109     4.5990     0.0360 O.2     
  11 C11            1.7995     4.5630     0.0108 C.3     
  12 C12            1.5699     5.4272    -1.2322 C.3     
  13 C13            2.5216     6.6252    -1.1975 C.3     
  14 N14            2.2774     7.4109     0.0189 N.3     
  15 C15            2.5373     6.6157     1.2257 C.3     
  16 C16            1.5861     5.4175     1.2634 C.3     
  17 C17            3.0762     8.6437     0.0185 C.3     
  18 C18            2.6174     9.5491     1.1634 C.3     
  19 N19            3.4141    10.7785     1.1631 N.am    
  20 C20            3.1849    11.7303     2.0894 C.2     
  21 O21            2.3171    11.5685     2.9252 O.2     
  22 C22            3.9882    12.9700     2.0890 C.ar    
  23 C23            3.7527    13.9576     3.0477 C.ar    
  24 C24            4.5069    15.1139     3.0427 C.ar    
  25 C25            5.4971    15.2946     2.0864 C.ar    
  26 C26            5.7331    14.3165     1.1331 C.ar    
  27 C27            4.9896    13.1556     1.1335 C.ar    
  28 F28            6.2327    16.4278     2.0847 F       
  29 F29            1.8165     4.6680    -2.3810 F       
  30 F30            4.2810    16.0709     3.9692 F       
  31 H31           -0.9251    -0.5580     0.0083 H       
  32 H32            1.2242    -1.7552    -0.0191 H       
  33 H33            3.3401    -0.5016    -0.0317 H       
  34 H34            3.3226     1.9587    -0.0175 H       
  35 H35           -1.9927     2.1287     0.0249 H       
  36 H36            2.8184     4.1759     0.0021 H       
  37 H37            0.5392     5.7815    -1.2437 H       
  38 H38            3.5522     6.2705    -1.1999 H       
  39 H39            2.3507     7.2503    -2.0740 H       
  40 H40            3.5679     6.2611     1.2120 H       
  41 H41            2.3779     7.2339     2.1093 H       
  42 H42            0.5556     5.7716     1.2911 H       
  43 H43            1.7898     4.8189     2.1513 H       
  44 H44            4.1289     8.3945     0.1519 H       
  45 H45            2.9431     9.1627    -0.9307 H       
  46 H46            1.5647     9.7982     1.0301 H       
  47 H47            2.7505     9.0301     2.1127 H       
  48 H48            4.1065    10.9075     0.4962 H       
  49 H49            2.9820    13.8173     3.7911 H       
  50 H50            6.5043    14.4621     0.3912 H       
  51 H51            5.1750    12.3946     0.3899 H       
@<TRIPOS>BOND
   1    1    2 ar
   2    1    6 ar
   3    1    9 1
   4    2    3 ar
   5    2   31 1
   6    3    4 ar
   7    3   32 1
   8    4    5 ar
   9    4   33 1
  10    5    6 ar
  11    5   34 1
  12    6    7 1
  13    7    8 am
  14    7   11 1
  15    8    9 am
  16    8   10 2
  17    9   35 1
  18   11   12 1
  19   11   16 1
  20   11   36 1
  21   12   13 1
  22   12   29 1
  23   12   37 1
  24   13   14 1
  25   13   38 1
  26   13   39 1
  27   14   15 1
  28   14   17 1
  29   15   16 1
  30   15   40 1
  31   15   41 1
  32   16   42 1
  33   16   43 1
  34   17   18 1
  35   17   44 1
  36   17   45 1
  37   18   19 1
  38   18   46 1
  39   18   47 1
  40   19   20 am
  41   19   48 1
  42   20   21 2
  43   20   22 1
  44   22   23 ar
  45   22   27 ar
  46   23   24 ar
  47   23   49 1
  48   24   25 ar
  49   24   30 1
  50   25   26 ar
  51   25   28 1
  52   26   27 ar
  53   26   50 1
  54   27   51 1

#	End of record

