#	Name: ASD03320118
#	Creating user name:	WinNT
#	Creation time:	15. 06. 2019 20:36

#	Modifying user name:	WinNT
#	Modification time:	15. 06. 2019 20:36

#	Program:	/corina/corina34_cracker 3.40 0067  02.08.2006

@<TRIPOS>MOLECULE
ASD03320118
  73   76    0    0    0
SMALL
NO_CHARGES


@<TRIPOS>ATOM
   1 C1            -0.0002     1.3678    -0.5309 C.2     
   2 C2             0.1418    -0.0862    -0.3243 C.ar    
   3 C3             1.0130    -0.5818     0.6551 C.ar    
   4 C4             1.1119    -1.9614     0.8115 C.ar    
   5 C5             0.3392    -2.7976    -0.0136 C.ar    
   6 N6            -0.4712    -2.2851    -0.9272 N.ar    
   7 C7            -0.5944    -0.9854    -1.0984 C.ar    
   8 O8             0.6409     2.1443     0.1508 O.2     
   9 N9            -0.8363     1.8352    -1.4791 N.am    
  10 N10            3.2886    -2.1336     2.1027 N.pl3   
  11 N11            3.7831    -2.9456     3.1313 N.2     
  12 C12            2.8536    -3.8038     3.4669 C.2     
  13 C13            1.7308    -3.5776     2.6706 C.2     
  14 C14            2.0161    -2.5388     1.8296 C.2     
  15 C15            4.0077    -1.0410     1.4430 C.3     
  16 O16            4.6047    -1.5230     0.2375 O.3     
  17 C17            5.3343    -0.5306    -0.4869 C.3     
  18 C18            5.9265    -1.1551    -1.7520 C.3     
  19 Si19           6.8778     0.1387    -2.6964 Si      
  20 C20            8.2531     0.8012    -1.6286 C.3     
  21 C21            7.5988    -0.6217    -4.2368 C.3     
  22 C22            5.7326     1.5303    -3.1684 C.3     
  23 C23           -1.0571     3.2109    -1.6002 C.ar    
  24 C24           -1.5056     3.7405    -2.8032 C.ar    
  25 C25           -1.7226     5.0995    -2.9195 C.ar    
  26 C26           -1.4934     5.9327    -1.8399 C.ar    
  27 C27           -1.0463     5.4086    -0.6409 C.ar    
  28 C28           -0.8337     4.0497    -0.5159 C.ar    
  29 C29           -1.7308     7.4151    -1.9706 C.3     
  30 C30           -3.1763     7.7360    -1.5854 C.3     
  31 F31           -0.8580     8.1038    -1.1214 F       
  32 F32           -1.5022     7.8092    -3.2933 F       
  33 F33           -3.4049     7.3420    -0.2627 F       
  34 F34           -3.3967     9.1122    -1.7067 F       
  35 F35           -4.0491     7.0474    -2.4346 F       
  36 N36            0.4268    -4.1700     0.1300 N.3     
  37 C37           -0.9068    -4.7667     0.3284 C.3     
  38 C38           -1.1057    -5.8208    -0.7810 C.3     
  39 C39            0.3476    -6.1639    -1.2017 C.3     
  40 C40            1.0470    -4.7888    -1.0609 C.3     
  41 O41           -1.7690    -6.9771    -0.2662 O.3     
  42 H42            1.5925     0.0889     1.2721 H       
  43 H43           -1.2710    -0.6095    -1.8515 H       
  44 H44           -1.2849     1.2175    -2.0774 H       
  45 H45            2.9414    -4.5609     4.2321 H       
  46 H46            0.8013    -4.1262     2.7111 H       
  47 H47            3.3101    -0.2373     1.2069 H       
  48 H48            4.7848    -0.6639     2.1078 H       
  49 H49            4.6643     0.2836    -0.7631 H       
  50 H50            6.1390    -0.1430     0.1378 H       
  51 H51            6.5965    -1.9693    -1.4758 H       
  52 H52            5.1218    -1.5427    -2.3767 H       
  53 H53            8.9231    -0.0130    -1.3525 H       
  54 H54            8.8097     1.5581    -2.1812 H       
  55 H55            7.8312     1.2461    -0.7274 H       
  56 H56            6.7941    -1.0094    -4.8615 H       
  57 H57            8.1554     0.1352    -4.7894 H       
  58 H58            8.2688    -1.4360    -3.9606 H       
  59 H59            5.3108     1.9752    -2.2672 H       
  60 H60            6.2892     2.2873    -3.7210 H       
  61 H61            4.9280     1.1427    -3.7932 H       
  62 H62           -1.6842     3.0904    -3.6469 H       
  63 H63           -2.0714     5.5119    -3.8547 H       
  64 H64           -0.8675     6.0621     0.2002 H       
  65 H65           -0.4895     3.6404     0.4223 H       
  66 H66           -0.9576    -5.2441     1.3070 H       
  67 H67           -1.6734    -3.9959     0.2492 H       
  68 H68           -1.6600    -5.3984    -1.6191 H       
  69 H69            0.7873    -6.8966    -0.5251 H       
  70 H70            0.3829    -6.5161    -2.2326 H       
  71 H71            0.8641    -4.1778    -1.9448 H       
  72 H72            2.1176    -4.9218    -0.9054 H       
  73 H73           -1.9183    -7.6703    -0.9237 H       
@<TRIPOS>BOND
   1    1    2 1
   2    1    8 2
   3    1    9 am
   4    2    3 ar
   5    2    7 ar
   6    3    4 ar
   7    3   42 1
   8    4    5 ar
   9    4   14 1
  10    5    6 ar
  11    5   36 1
  12    6    7 ar
  13    7   43 1
  14    9   23 1
  15    9   44 1
  16   10   11 1
  17   10   14 1
  18   10   15 1
  19   11   12 2
  20   12   13 1
  21   12   45 1
  22   13   14 2
  23   13   46 1
  24   15   16 1
  25   15   47 1
  26   15   48 1
  27   16   17 1
  28   17   18 1
  29   17   49 1
  30   17   50 1
  31   18   19 1
  32   18   51 1
  33   18   52 1
  34   19   20 1
  35   19   21 1
  36   19   22 1
  37   20   53 1
  38   20   54 1
  39   20   55 1
  40   21   56 1
  41   21   57 1
  42   21   58 1
  43   22   59 1
  44   22   60 1
  45   22   61 1
  46   23   24 ar
  47   23   28 ar
  48   24   25 ar
  49   24   62 1
  50   25   26 ar
  51   25   63 1
  52   26   27 ar
  53   26   29 1
  54   27   28 ar
  55   27   64 1
  56   28   65 1
  57   29   30 1
  58   29   31 1
  59   29   32 1
  60   30   33 1
  61   30   34 1
  62   30   35 1
  63   36   37 1
  64   36   40 1
  65   37   38 1
  66   37   66 1
  67   37   67 1
  68   38   39 1
  69   38   41 1
  70   38   68 1
  71   39   40 1
  72   39   69 1
  73   39   70 1
  74   40   71 1
  75   40   72 1
  76   41   73 1

#	End of record

