#	Name: ASD03910090
#	Creating user name:	WinNT
#	Creation time:	15. 06. 2019 20:47

#	Modifying user name:	WinNT
#	Modification time:	15. 06. 2019 20:47

#	Program:	/corina/corina34_cracker 3.40 0067  02.08.2006

@<TRIPOS>MOLECULE
ASD03910090
  45   46    0    0    0
SMALL
NO_CHARGES


@<TRIPOS>ATOM
   1 C1            -0.9650    -0.3463     0.8269 C.2     
   2 C2             0.0557    -0.0323    -0.2364 C.3     
   3 C3            -0.3635    -0.6862    -1.5546 C.3     
   4 O4            -0.6345    -0.9431     1.8242 O.2     
   5 O5            -2.2402     0.0420     0.6687 O.3     
   6 C6             0.1460     1.4833    -0.4250 C.3     
   7 O7             1.3307    -0.5395     0.1627 O.3     
   8 C8             1.4287    -1.8815     0.3530 C.ar    
   9 C9             2.6624    -2.4571     0.6204 C.ar    
  10 C10            2.7595    -3.8215     0.8135 C.ar    
  11 C11            1.6284    -4.6134     0.7405 C.ar    
  12 C12            0.3978    -4.0423     0.4737 C.ar    
  13 C13            0.2945    -2.6776     0.2859 C.ar    
  14 C14            1.7372    -6.1016     0.9515 C.3     
  15 C15            1.5536    -6.4208     2.4365 C.3     
  16 N16            1.6593    -7.8676     2.6417 N.am    
  17 C17            1.5297    -8.3838     3.8799 C.2     
  18 C18            1.6363    -9.8432     4.0869 C.ar    
  19 C19            1.5025   -10.3810     5.3683 C.ar    
  20 C20            1.6030   -11.7435     5.5552 C.ar    
  21 C21            1.8368   -12.5781     4.4748 C.ar    
  22 C22            1.9709   -12.0504     3.2012 C.ar    
  23 C23            1.8657   -10.6902     3.0009 C.ar    
  24 O24            1.3250    -7.6491     4.8264 O.2     
  25 Cl25           1.9627   -14.2924     4.7180 Cl      
  26 H26           -1.4130    -0.4671    -1.7513 H       
  27 H27            0.2482    -0.2923    -2.3662 H       
  28 H28           -0.2243    -1.7651    -1.4854 H       
  29 H29           -2.8585    -0.1822     1.3776 H       
  30 H30            0.3587     1.9567     0.5335 H       
  31 H31            0.9447     1.7148    -1.1297 H       
  32 H32           -0.8010     1.8582    -0.8132 H       
  33 H33            3.5462    -1.8390     0.6772 H       
  34 H34            3.7197    -4.2701     1.0213 H       
  35 H35           -0.4841    -4.6631     0.4164 H       
  36 H36           -0.6677    -2.2313     0.0824 H       
  37 H37            0.9647    -6.6080     0.3728 H       
  38 H38            2.7191    -6.4441     0.6249 H       
  39 H39            2.3261    -5.9144     3.0152 H       
  40 H40            0.5717    -6.0784     2.7631 H       
  41 H41            1.8227    -8.4539     1.8864 H       
  42 H42            1.3209    -9.7311     6.2116 H       
  43 H43            1.4996   -12.1606     6.5460 H       
  44 H44            2.1535   -12.7061     2.3626 H       
  45 H45            1.9653   -10.2803     2.0066 H       
@<TRIPOS>BOND
   1    1    2 1
   2    1    4 2
   3    1    5 1
   4    2    3 1
   5    2    6 1
   6    2    7 1
   7    3   26 1
   8    3   27 1
   9    3   28 1
  10    5   29 1
  11    6   30 1
  12    6   31 1
  13    6   32 1
  14    7    8 1
  15    8    9 ar
  16    8   13 ar
  17    9   10 ar
  18    9   33 1
  19   10   11 ar
  20   10   34 1
  21   11   12 ar
  22   11   14 1
  23   12   13 ar
  24   12   35 1
  25   13   36 1
  26   14   15 1
  27   14   37 1
  28   14   38 1
  29   15   16 1
  30   15   39 1
  31   15   40 1
  32   16   17 am
  33   16   41 1
  34   17   18 1
  35   17   24 2
  36   18   19 ar
  37   18   23 ar
  38   19   20 ar
  39   19   42 1
  40   20   21 ar
  41   20   43 1
  42   21   22 ar
  43   21   25 1
  44   22   23 ar
  45   22   44 1
  46   23   45 1

#	End of record

