#	Name: ASD09870002
#	Creating user name:	WinNT
#	Creation time:	15. 06. 2019 21:24

#	Modifying user name:	WinNT
#	Modification time:	15. 06. 2019 21:24

#	Program:	/corina/corina34_cracker 3.40 0067  02.08.2006

@<TRIPOS>MOLECULE
ASD09870002
  28   29    0    0    0
SMALL
NO_CHARGES


@<TRIPOS>ATOM
   1 C1            -0.0178     1.4625     0.0101 C.2     
   2 C2             0.0021    -0.0041     0.0020 C.2     
   3 N3             1.1401     2.1522     0.0027 N.am    
   4 O4            -1.0800     2.0566     0.0184 O.2     
   5 C5            -1.1013    -0.8397     0.0081 C.2     
   6 N6             1.1084    -0.7956    -0.0187 N.2     
   7 C7             0.7411    -2.0421    -0.0198 C.2     
   8 N8            -0.6199    -2.1140    -0.0034 N.pl3   
   9 O9            -2.4018    -0.4648     0.0232 O.3     
  10 C10           -1.4209    -3.3407     0.0008 C.3     
  11 C11           -1.8314    -3.7033    -1.4396 C.3     
  12 C12           -1.2459    -5.1200    -1.6558 C.3     
  13 C13           -1.0569    -5.6187    -0.2005 C.3     
  14 O14           -0.6383    -4.4336     0.5101 O.3     
  15 O15           -3.2549    -3.7261    -1.5632 O.3     
  16 O16           -2.1685    -5.9505    -2.3637 O.3     
  17 O17           -0.0441    -6.6251    -0.1410 O.3     
  18 H18            1.9866     1.6787    -0.0079 H       
  19 H19            1.1269     3.1221     0.0081 H       
  20 H20            1.4104    -2.8896    -0.0344 H       
  21 H21           -2.7885    -0.3511    -0.8558 H       
  22 H22           -2.3100    -3.2005     0.6155 H       
  23 H23           -1.3972    -2.9987    -2.1489 H       
  24 H24           -0.2900    -5.0704    -2.1772 H       
  25 H25           -1.9975    -5.9951     0.2015 H       
  26 H26           -3.5691    -3.9490    -2.4501 H       
  27 H27           -1.8469    -6.8483    -2.5234 H       
  28 H28            0.1142    -6.9717     0.7478 H       
@<TRIPOS>BOND
   1    1    2 1
   2    1    3 am
   3    1    4 2
   4    2    5 2
   5    2    6 1
   6    3   18 1
   7    3   19 1
   8    5    9 1
   9    5    8 1
  10    6    7 2
  11    7    8 1
  12    7   20 1
  13    8   10 1
  14    9   21 1
  15   10   11 1
  16   10   14 1
  17   10   22 1
  18   11   12 1
  19   11   15 1
  20   11   23 1
  21   12   13 1
  22   12   16 1
  23   12   24 1
  24   13   14 1
  25   13   17 1
  26   13   25 1
  27   15   26 1
  28   16   27 1
  29   17   28 1

#	End of record

