#	Name: ASD01230655
#	Creating user name:	WinNT
#	Creation time:	15. 06. 2019 19:14

#	Modifying user name:	WinNT
#	Modification time:	15. 06. 2019 19:14

#	Program:	/corina/corina34_cracker 3.40 0067  02.08.2006

@<TRIPOS>MOLECULE
ASD01230655
  28   29    0    0    0
SMALL
NO_CHARGES


@<TRIPOS>ATOM
   1 C1            -0.0144     1.2114     0.0087 C.2     
   2 O2             0.0516     0.1203    -0.5231 O.2     
   3 C3             1.2216     1.9652     0.3044 C.ar    
   4 C4             2.4399     1.2939     0.4254 C.ar    
   5 C5             3.5935     2.0071     0.7020 C.ar    
   6 C6             3.5376     3.3859     0.8588 C.ar    
   7 C7             2.3320     4.0524     0.7398 C.ar    
   8 C8             1.1767     3.3527     0.4581 C.ar    
   9 O9             4.7814     1.3576     0.8206 O.3     
  10 C10            5.9315     2.1560     1.1069 C.3     
  11 C11           -1.3304     1.7862     0.3538 C.ar    
  12 C12           -2.4807     1.3551    -0.3118 C.ar    
  13 C13           -3.7061     1.8958     0.0152 C.ar    
  14 C14           -3.7982     2.8646     1.0007 C.ar    
  15 C15           -2.6617     3.2964     1.6644 C.ar    
  16 C16           -1.4311     2.7593     1.3513 C.ar    
  17 Br17          -5.4830     3.6016     1.4417 Br      
  18 H18            2.4819     0.2215     0.3039 H       
  19 H19            4.4393     3.9397     1.0749 H       
  20 H20            2.2952     5.1246     0.8636 H       
  21 H21            0.2374     3.8769     0.3613 H       
  22 H22            5.7862     2.6761     2.0537 H       
  23 H23            6.8107     1.5153     1.1755 H       
  24 H24            6.0749     2.8855     0.3098 H       
  25 H25           -2.4101     0.6002    -1.0809 H       
  26 H26           -4.5960     1.5634    -0.4986 H       
  27 H27           -2.7403     4.0522     2.4319 H       
  28 H28           -0.5463     3.0933     1.8728 H       
@<TRIPOS>BOND
   1    1    2 2
   2    1    3 1
   3    1   11 1
   4    3    4 ar
   5    3    8 ar
   6    4    5 ar
   7    4   18 1
   8    5    6 ar
   9    5    9 1
  10    6    7 ar
  11    6   19 1
  12    7    8 ar
  13    7   20 1
  14    8   21 1
  15    9   10 1
  16   10   22 1
  17   10   23 1
  18   10   24 1
  19   11   12 ar
  20   11   16 ar
  21   12   13 ar
  22   12   25 1
  23   13   14 ar
  24   13   26 1
  25   14   15 ar
  26   14   17 1
  27   15   16 ar
  28   15   27 1
  29   16   28 1

#	End of record

