#	Name: ASD04882066
#	Creating user name:	WinNT
#	Creation time:	15. 06. 2019 20:54

#	Modifying user name:	WinNT
#	Modification time:	15. 06. 2019 20:54

#	Program:	/corina/corina34_cracker 3.40 0067  02.08.2006

@<TRIPOS>MOLECULE
ASD04882066
  74   78    0    0    0
SMALL
NO_CHARGES


@<TRIPOS>ATOM
   1 N1            -0.1249     1.5381    -0.0422 N.am    
   2 C2            -0.0616     0.1386    -0.0427 C.ar    
   3 C3            -1.2356    -0.6147     0.0449 C.ar    
   4 C4            -1.1743    -2.0035     0.0444 C.ar    
   5 C5             0.0428    -2.6421    -0.0429 C.ar    
   6 C6             1.2206    -1.8949    -0.1313 C.ar    
   7 C7             1.1614    -0.4984    -0.1358 C.ar    
   8 N8            -2.4684     0.0268     0.1333 N.3     
   9 C9            -2.5904     0.7604     1.4002 C.3     
  10 N10           -5.0047     0.7070     1.0659 N.am    
  11 C11           -3.8755     1.5950     1.3816 C.3     
  12 C12            0.8586     2.2569     0.5345 C.2     
  13 O13            1.7479     1.6921     1.1441 O.2     
  14 C14            0.8572     3.7193     0.4275 C.2     
  15 C15            2.5243    -2.5792    -0.2242 C.2     
  16 N16            2.5800    -3.9259    -0.2239 N.am    
  17 O17            3.5485    -1.9284    -0.3011 O.2     
  18 S18           -6.3611     0.6864     2.0157 S.o2    
  19 C19           -7.4726     1.8882     1.3639 C.ar    
  20 C20            1.7881     4.5638     0.9614 C.2     
  21 C21            3.8746    -4.6054    -0.3162 C.3     
  22 C22            3.6582    -6.1199    -0.2955 C.3     
  23 C23            5.0102    -6.8296    -0.3919 C.3     
  24 N24            4.8030    -8.2798    -0.3721 N.am    
  25 C25            4.6154    -9.0342    -1.4687 C.2     
  26 C26            4.7798    -9.0964     0.8471 C.3     
  27 C27            4.1148   -10.4293     0.4378 C.3     
  28 C28            4.4249   -10.4830    -1.0772 C.3     
  29 O29            4.6003    -8.6143    -2.6064 O.2     
  30 C30           -8.3930     1.5258     0.3981 C.ar    
  31 C31           -7.4274     3.1915     1.8228 C.ar    
  32 C32           -8.2993     4.1347     1.3130 C.ar    
  33 C33           -9.2180     3.7742     0.3419 C.ar    
  34 C34           -9.2656     2.4675    -0.1135 C.ar    
  35 C35            1.3964     5.8666     0.6157 C.2     
  36 C36            0.2581     5.7616    -0.1048 C.2     
  37 O37           -0.0607     4.4659    -0.2207 O.3     
  38 F38          -10.0708     4.6955    -0.1572 F       
  39 C39           -4.8973    -0.1621    -0.1158 C.3     
  40 C40           -3.5720    -0.9274    -0.0383 C.3     
  41 O41           -6.9742    -0.5793     1.8122 O.2     
  42 O42           -5.9626     1.1603     3.2947 O.2     
  43 H43           -0.8745     1.9899    -0.4603 H       
  44 H44           -2.0831    -2.5830     0.1130 H       
  45 H45            0.0871    -3.7212    -0.0427 H       
  46 H46            2.0699     0.0815    -0.2043 H       
  47 H47           -2.6284     0.0526     2.2282 H       
  48 H48           -1.7307     1.4191     1.5233 H       
  49 H49           -4.0304     2.0507     2.3596 H       
  50 H50           -3.7967     2.3717     0.6210 H       
  51 H51            1.7630    -4.4451    -0.1626 H       
  52 H52            2.6572     4.2836     1.5382 H       
  53 H53            4.3685    -4.3216    -1.2456 H       
  54 H54            4.4981    -4.3159     0.5297 H       
  55 H55            3.1643    -6.4037     0.6338 H       
  56 H56            3.0347    -6.4094    -1.1414 H       
  57 H57            5.5041    -6.5458    -1.3213 H       
  58 H58            5.6336    -6.5401     0.4540 H       
  59 H59            5.7952    -9.2745     1.2011 H       
  60 H60            4.1911    -8.6029     1.6204 H       
  61 H61            4.5734   -11.2700     0.9583 H       
  62 H62            3.0401   -10.4004     0.6177 H       
  63 H63            3.5879   -10.9188    -1.6227 H       
  64 H64            5.3375   -11.0504    -1.2599 H       
  65 H65           -8.4299     0.5065     0.0430 H       
  66 H66           -6.7107     3.4725     2.5803 H       
  67 H67           -8.2643     5.1527     1.6722 H       
  68 H68           -9.9815     2.1852    -0.8712 H       
  69 H69            1.9085     6.7810     0.8766 H       
  70 H70           -0.3005     6.5865    -0.5220 H       
  71 H71           -5.7277    -0.8681    -0.1278 H       
  72 H72           -4.9167     0.4458    -1.0204 H       
  73 H73           -3.4241    -1.4929    -0.9583 H       
  74 H74           -3.5962    -1.6118     0.8098 H       
@<TRIPOS>BOND
   1    1    2 1
   2    1   12 am
   3    1   43 1
   4    2    3 ar
   5    2    7 ar
   6    3    4 ar
   7    3    8 1
   8    4    5 ar
   9    4   44 1
  10    5    6 ar
  11    5   45 1
  12    6    7 ar
  13    6   15 1
  14    7   46 1
  15    8    9 1
  16    8   40 1
  17    9   11 1
  18    9   47 1
  19    9   48 1
  20   10   11 1
  21   10   18 am
  22   10   39 1
  23   11   49 1
  24   11   50 1
  25   12   13 2
  26   12   14 1
  27   14   20 2
  28   14   37 1
  29   15   16 am
  30   15   17 2
  31   16   21 1
  32   16   51 1
  33   18   19 1
  34   18   41 2
  35   18   42 2
  36   19   30 ar
  37   19   31 ar
  38   20   35 1
  39   20   52 1
  40   21   22 1
  41   21   53 1
  42   21   54 1
  43   22   23 1
  44   22   55 1
  45   22   56 1
  46   23   24 1
  47   23   57 1
  48   23   58 1
  49   24   25 am
  50   24   26 1
  51   25   29 2
  52   25   28 1
  53   26   27 1
  54   26   59 1
  55   26   60 1
  56   27   28 1
  57   27   61 1
  58   27   62 1
  59   28   63 1
  60   28   64 1
  61   30   34 ar
  62   30   65 1
  63   31   32 ar
  64   31   66 1
  65   32   33 ar
  66   32   67 1
  67   33   34 ar
  68   33   38 1
  69   34   68 1
  70   35   36 2
  71   35   69 1
  72   36   37 1
  73   36   70 1
  74   39   40 1
  75   39   71 1
  76   39   72 1
  77   40   73 1
  78   40   74 1

#	End of record

