#	Name: ASD05720292
#	Creating user name:	WinNT
#	Creation time:	15. 06. 2019 21:02

#	Modifying user name:	WinNT
#	Modification time:	15. 06. 2019 21:02

#	Program:	/corina/corina34_cracker 3.40 0067  02.08.2006

@<TRIPOS>MOLECULE
ASD05720292
  69   73    0    0    0
SMALL
NO_CHARGES


@<TRIPOS>ATOM
   1 C1             0.5120     1.0236     1.1166 C.2     
   2 N2             0.4123    -0.2391     0.6809 N.am    
   3 C3             1.6581    -0.6134    -0.0048 C.3     
   4 C4             2.5298     0.6534     0.0955 C.3     
   5 N5             1.6825     1.6070     0.8271 N.am    
   6 O6            -0.3809     1.5905     1.7159 O.2     
   7 C7             2.0589     2.9774     1.1829 C.3     
   8 N8             2.8557     3.9877     5.2589 N.3     
   9 C9             3.8616     4.4010     4.2722 C.3     
  10 C10            3.2405     4.3905     2.8735 C.3     
  11 C11            2.7354     2.9805     2.5552 C.3     
  12 C12            1.7254     2.5552     3.6246 C.3     
  13 C13            2.3904     2.6188     5.0015 C.3     
  14 C14            1.3817    -0.9606    -1.4691 C.3     
  15 C15            0.5223    -2.2244    -1.5401 C.3     
  16 C16            0.6397     0.1989    -2.1368 C.3     
  17 C17           -1.6780    -3.1431     0.6610 C.2     
  18 N18           -0.6242    -2.3358     0.5053 N.2     
  19 C19           -0.6920    -1.0636     0.8500 C.2     
  20 C20           -1.8850    -0.5415     1.3902 C.2     
  21 C21           -2.9530    -1.3557     1.5494 C.2     
  22 N22           -2.8524    -2.6690     1.1827 N.pl3   
  23 N23           -3.7641    -3.7299     1.2250 N.2     
  24 C24           -3.1921    -4.8110     0.7551 C.2     
  25 C25           -1.8793    -4.5010     0.3794 C.2     
  26 C26           -0.8891    -5.4334    -0.2044 C.ar    
  27 C27           -0.6500    -6.6675     0.4024 C.ar    
  28 C28            0.2729    -7.5356    -0.1423 C.ar    
  29 C29            0.9675    -7.1787    -1.3009 C.ar    
  30 C30            0.7275    -5.9455    -1.9058 C.ar    
  31 C31           -0.1982    -5.0809    -1.3652 C.ar    
  32 N32            3.4786    -9.0253    -3.1614 N.pl3   
  33 N33            2.6742    -7.8902    -2.9696 N.2     
  34 C34            1.9603    -8.1112    -1.8869 C.2     
  35 N35            2.2798    -9.3187    -1.4012 N.2     
  36 C36            3.1888    -9.8736    -2.1586 C.2     
  37 F37            0.5055    -8.7301     0.4442 F       
  38 H38            2.1383    -1.4495     0.5035 H       
  39 H39            3.4428     0.4464     0.6537 H       
  40 H40            2.7657     1.0352    -0.8978 H       
  41 H41            2.7494     3.3700     0.4365 H       
  42 H42            1.1664     3.6022     1.2164 H       
  43 H43            3.2125     4.0776     6.1984 H       
  44 H44            4.2094     5.4069     4.5076 H       
  45 H45            4.7038     3.7097     4.3007 H       
  46 H46            2.4068     5.0919     2.8403 H       
  47 H47            3.9917     4.6823     2.1396 H       
  48 H48            3.5751     2.2856     2.5490 H       
  49 H49            0.8679     3.2276     3.6032 H       
  50 H50            1.3942     1.5356     3.4273 H       
  51 H51            3.2396     1.9359     5.0266 H       
  52 H52            1.6697     2.3303     5.7666 H       
  53 H53            2.3257    -1.1335    -1.9859 H       
  54 H54            0.5093    -2.5978    -2.5641 H       
  55 H55            0.9403    -2.9855    -0.8812 H       
  56 H56           -0.4947    -1.9904    -1.2257 H       
  57 H57            1.2519     1.0993    -2.0862 H       
  58 H58            0.4428    -0.0484    -3.1800 H       
  59 H59           -0.3043     0.3719    -1.6200 H       
  60 H60           -1.9453     0.4987     1.6744 H       
  61 H61           -3.8748    -0.9730     1.9620 H       
  62 H62           -3.6580    -5.7815     0.6683 H       
  63 H63           -1.1872    -6.9422     1.2981 H       
  64 H64            1.2649    -5.6699    -2.8011 H       
  65 H65           -0.3866    -4.1279    -1.8370 H       
  66 H66            4.1152    -9.1707    -3.8787 H       
  67 H67            3.6314   -10.8468    -2.0057 H       
  68 Cl68           9.7038    10.4069    11.1984 Cl      
  69 H69            9.7038    11.7769    11.1984 H       
@<TRIPOS>BOND
   1    1    2 am
   2    1    5 am
   3    1    6 2
   4    2    3 1
   5    2   19 1
   6    3    4 1
   7    3   14 1
   8    3   38 1
   9    4    5 1
  10    4   39 1
  11    4   40 1
  12    5    7 1
  13    7   11 1
  14    7   41 1
  15    7   42 1
  16    8    9 1
  17    8   13 1
  18    8   43 1
  19    9   10 1
  20    9   44 1
  21    9   45 1
  22   10   11 1
  23   10   46 1
  24   10   47 1
  25   11   12 1
  26   11   48 1
  27   12   13 1
  28   12   49 1
  29   12   50 1
  30   13   51 1
  31   13   52 1
  32   14   15 1
  33   14   16 1
  34   14   53 1
  35   15   54 1
  36   15   55 1
  37   15   56 1
  38   16   57 1
  39   16   58 1
  40   16   59 1
  41   17   18 1
  42   17   22 1
  43   17   25 2
  44   18   19 2
  45   19   20 1
  46   20   21 2
  47   20   60 1
  48   21   22 1
  49   21   61 1
  50   22   23 1
  51   23   24 2
  52   24   25 1
  53   24   62 1
  54   25   26 1
  55   26   27 ar
  56   26   31 ar
  57   27   28 ar
  58   27   63 1
  59   28   29 ar
  60   28   37 1
  61   29   30 ar
  62   29   34 1
  63   30   31 ar
  64   30   64 1
  65   31   65 1
  66   32   33 1
  67   32   36 1
  68   32   66 1
  69   33   34 2
  70   34   35 1
  71   35   36 2
  72   36   67 1
  73   68   69 1

#	End of record

