#	Name: ASD04570052
#	Creating user name:	WinNT
#	Creation time:	15. 06. 2019 20:50

#	Modifying user name:	WinNT
#	Modification time:	15. 06. 2019 20:50

#	Program:	/corina/corina34_cracker 3.40 0067  02.08.2006

@<TRIPOS>MOLECULE
ASD04570052
 352  356    0    0    0
SMALL
NO_CHARGES


@<TRIPOS>ATOM
   1 C1             2.8778     1.7368     1.7395 C.2     
   2 N2             2.6415     0.5165     1.2183 N.am    
   3 C3             3.7565    -0.3029     0.7372 C.3     
   4 C4             3.2269    -1.6104     0.2072 C.2     
   5 N5             4.0773    -2.5296    -0.2913 N.am    
   6 C6             3.5624    -3.8006    -0.8065 C.3     
   7 C7             4.7094    -4.6436    -1.3014 C.2     
   8 C8             4.4452    -6.0080    -1.8842 C.3     
   9 C9             5.7695    -6.6474    -2.3064 C.3     
  10 C10            5.4964    -7.9571    -3.0001 C.2     
  11 N11            5.3657    -7.9951    -4.3409 N.am    
  12 C12            5.1953    -9.2798    -5.0242 C.3     
  13 C13            6.0212    -9.2918    -6.2847 C.2     
  14 N14            6.2586   -10.4544    -6.9237 N.am    
  15 C15            7.0615   -10.4661    -8.1491 C.3     
  16 C16            6.6936   -11.6689    -8.9792 C.2     
  17 N17            7.3083   -11.8872   -10.1586 N.am    
  18 C18            6.9507   -13.0565   -10.9655 C.3     
  19 C19            8.1101   -13.4272   -11.8541 C.2     
  20 N20            8.0089   -14.4796   -12.6900 N.am    
  21 C21            9.1359   -14.8399   -13.5538 C.3     
  22 C22            9.0851   -14.0172   -14.8154 C.2     
  23 C23           10.2925   -13.9402   -15.7139 C.3     
  24 C24            9.9776   -13.0474   -16.9158 C.3     
  25 O25            8.0768   -13.4196   -15.1063 O.2     
  26 C26            9.0509   -16.3255   -13.9099 C.3     
  27 C27            9.1729   -17.1632   -12.6355 C.3     
  28 C28            8.9300   -18.6367   -12.9685 C.3     
  29 C29           10.5761   -16.9976   -12.0486 C.3     
  30 O30            9.1342   -12.7786   -11.8169 O.2     
  31 C31            5.7315   -12.7267   -11.8290 C.3     
  32 C32            4.5219   -12.4719   -10.9274 C.3     
  33 C33            3.3027   -12.1421   -11.7909 C.3     
  34 C34            2.0931   -11.8873   -10.8893 C.3     
  35 N35            0.9225   -11.5706   -11.7183 N.3     
  36 O36            5.8445   -12.4404    -8.5859 O.2     
  37 C37            8.5462   -10.5321    -7.7854 C.3     
  38 C38            8.9485    -9.2522    -7.0501 C.3     
  39 C39           10.4332    -9.3182    -6.6865 C.3     
  40 C40           10.8356    -8.0382    -5.9511 C.3     
  41 N41           12.2611    -8.1016    -5.6020 N.3     
  42 O42            6.4721    -8.2552    -6.7241 O.2     
  43 C43            3.7202    -9.4770    -5.3790 C.3     
  44 C44            2.8972    -9.5896    -4.0942 C.3     
  45 C45            1.4442    -9.7838    -4.4437 C.2     
  46 O46            1.1007    -9.8278    -5.6060 O.2     
  47 N47            0.5264    -9.9086    -3.4646 N.am    
  48 O48            5.3941    -8.9769    -2.3517 O.2     
  49 C49            6.6332    -6.8964    -1.0683 C.3     
  50 C50            7.9957    -7.3788    -1.4950 C.ar    
  51 C51            8.9690    -6.4658    -1.8567 C.ar    
  52 C52           10.2188    -6.9055    -2.2483 C.ar    
  53 C53           10.4967    -8.2644    -2.2784 C.ar    
  54 C54            9.5184    -9.1784    -1.9150 C.ar    
  55 C55            8.2720    -8.7333    -1.5188 C.ar    
  56 O56           11.7252    -8.6994    -2.6636 O.3     
  57 O57            5.8402    -4.2257    -1.2311 O.2     
  58 O58            2.0354    -1.8356     0.2292 O.2     
  59 H59            1.7332     0.1809     1.1618 H       
  60 O60            4.0135     2.1565     1.8102 O.2     
  61 C61            1.7302     2.5823     2.2288 C.3     
  62 C62            2.2681     3.9092     2.7681 C.3     
  63 C63            1.1030     4.7676     3.2648 C.3     
  64 C64            0.4394     4.0834     4.4617 C.3     
  65 C65            1.6261     6.1416     3.6883 C.3     
  66 C66            0.4646     7.0585     4.0573 C.3     
  67 C67            0.9790     8.4667     3.6523 C.3     
  68 C68            1.5992     8.1866     2.2790 C.3     
  69 C69            2.3345     6.8363     2.4986 C.3     
  70 C70            0.0885     7.1187     5.5248 C.3     
  71 C71           -1.0873     8.1013     5.6559 C.3     
  72 C72           -0.7262     9.4780     5.1087 C.3     
  73 C73           -0.2204     9.3953     3.6598 C.3     
  74 C74           -0.7654     6.6970     3.2223 C.3     
  75 C75           -1.9473    10.3974     5.1600 C.3     
  76 C76           -1.5518    11.7969     4.6841 C.3     
  77 C77           -1.0313    11.7209     3.2475 C.3     
  78 C78            0.1845    10.7937     3.1910 C.3     
  79 C79           -2.4685    10.4752     6.5964 C.3     
  80 C80           -3.6909    11.3941     6.6456 C.3     
  81 C81           -3.2957    12.7937     6.1704 C.3     
  82 C82           -2.7739    12.7165     4.7344 C.3     
  83 C83           -3.0437     9.8403     4.2497 C.3     
  84 O84           -2.2563    13.3229     7.0352 O.3     
  85 C85           -2.6548    14.0221     8.1095 C.2     
  86 O86           -3.8331    14.1866     8.3202 O.2     
  87 C87           -1.6325    14.6020     9.0527 C.3     
  88 F88           -2.2849    15.2819    10.0868 F       
  89 F89           -0.8557    13.5702     9.5903 F       
  90 F90           -0.8079    15.4925     8.3567 F       
  91 H91            4.2795     0.2267    -0.0591 H       
  92 H92            4.4461    -0.4965     1.5588 H       
  93 H93            5.0303    -2.3494    -0.3089 H       
  94 H94            3.0394    -4.3303    -0.0103 H       
  95 H95            2.8728    -3.6070    -1.6281 H       
  96 H96            3.9612    -6.6353    -1.1356 H       
  97 H97            3.7946    -5.9120    -2.7535 H       
  98 H98            6.2952    -5.9782    -2.9876 H       
  99 H99            5.3845    -7.1719    -4.8536 H       
 100 H100           5.5221   -10.0864    -4.3680 H       
 101 H101           5.8980   -11.2835    -6.5722 H       
 102 H102           6.8671    -9.5578    -8.7194 H       
 103 H103           7.9875   -11.2702   -10.4731 H       
 104 H104           6.7147   -13.8933   -10.3081 H       
 105 H105           7.1898   -14.9983   -12.7197 H       
 106 H106          10.0718   -14.6448   -13.0302 H       
 107 H107          11.1318   -13.5205   -15.1594 H       
 108 H108          10.5507   -14.9404   -16.0620 H       
 109 H109           9.1383   -13.4671   -17.4702 H       
 110 H110           9.7194   -12.0473   -16.5677 H       
 111 H111          10.8509   -12.9917   -17.5657 H       
 112 H112           8.0934   -16.5300   -14.3889 H       
 113 H113           9.8609   -16.5824   -14.5925 H       
 114 H114           8.4331   -16.8284   -11.9083 H       
 115 H115           9.7192   -18.9945   -13.6298 H       
 116 H116           8.9330   -19.2223   -12.0492 H       
 117 H117           7.9649   -18.7429   -13.4639 H       
 118 H118          10.7491   -15.9479   -11.8113 H       
 119 H119          10.6630   -17.5944   -11.1407 H       
 120 H120          11.3159   -17.3324   -12.7757 H       
 121 H121           5.9367   -11.8355   -12.4221 H       
 122 H122           5.5194   -13.5644   -12.4933 H       
 123 H123           4.3167   -13.3630   -10.3343 H       
 124 H124           4.7340   -11.6341   -10.2631 H       
 125 H125           3.5079   -11.2509   -12.3840 H       
 126 H126           3.0906   -12.9798   -12.4552 H       
 127 H127           1.8879   -12.7784   -10.2961 H       
 128 H128           2.3052   -11.0495   -10.2250 H       
 129 H129           0.7441   -12.3045   -12.3875 H       
 130 H130           0.1098   -11.3981   -11.1457 H       
 131 H131           8.7244   -11.3928    -7.1408 H       
 132 H132           9.1390   -10.6303    -8.6949 H       
 133 H133           8.7703    -8.3915    -7.6947 H       
 134 H134           8.3557    -9.1540    -6.1407 H       
 135 H135          10.6115   -10.1789    -6.0419 H       
 136 H136          11.0260    -9.4164    -7.5959 H       
 137 H137          10.6573    -7.1775    -6.5957 H       
 138 H138          10.2428    -7.9400    -5.0417 H       
 139 H139          12.5516    -7.2670    -5.1150 H       
 140 H140          12.4638    -8.9268    -5.0579 H       
 141 H141           3.3696    -8.6250    -5.9616 H       
 142 H142           3.6062   -10.3892    -5.9647 H       
 143 H143           3.2478   -10.4415    -3.5116 H       
 144 H144           3.0112    -8.6773    -3.5085 H       
 145 H145           0.8011    -9.8733    -2.5350 H       
 146 H146          -0.4088   -10.0336    -3.6896 H       
 147 H147           6.7362    -5.9691    -0.5047 H       
 148 H148           6.1602    -7.6521    -0.4413 H       
 149 H149           8.7520    -5.4081    -1.8334 H       
 150 H150          10.9786    -6.1920    -2.5310 H       
 151 H151           9.7323   -10.2367    -1.9376 H       
 152 H152           7.5100    -9.4445    -1.2358 H       
 153 H153          12.3571    -8.7874    -1.9369 H       
 154 H154           1.0445     2.7764     1.4040 H       
 155 H155           1.2027     2.0542     3.0232 H       
 156 H156           2.9537     3.7150     3.5928 H       
 157 H157           2.7955     4.4372     1.9737 H       
 158 H158           0.3730     4.8877     2.4643 H       
 159 H159          -0.4415     4.6507     4.7620 H       
 160 H160           0.1429     3.0720     4.1836 H       
 161 H161           1.1441     4.0401     5.2921 H       
 162 H162           2.3105     6.0413     4.5308 H       
 163 H163           1.7421     8.8096     4.3510 H       
 164 H164           0.8242     8.0847     1.5193 H       
 165 H165           2.3059     8.9709     2.0078 H       
 166 H166           3.3821     7.0157     2.7400 H       
 167 H167           2.2567     6.2181     1.6042 H       
 168 H168          -0.2138     6.1303     5.8709 H       
 169 H169           0.9361     7.4744     6.1105 H       
 170 H170          -1.9416     7.7108     5.1029 H       
 171 H171          -1.3577     8.1954     6.7076 H       
 172 H172           0.0559     9.9119     5.7317 H       
 173 H173          -1.0036     8.9901     3.0191 H       
 174 H174          -1.1173     5.7047     3.5046 H       
 175 H175          -1.5543     7.4272     3.4025 H       
 176 H176          -0.5008     6.7014     2.1649 H       
 177 H177          -0.7712    12.1941     5.3329 H       
 178 H178          -1.8150    11.3319     2.5975 H       
 179 H179          -0.7436    12.7175     2.9124 H       
 180 H180           0.9685    11.1822     3.8411 H       
 181 H181           0.5542    10.7409     2.1670 H       
 182 H182          -2.7495     9.4781     6.9355 H       
 183 H183          -1.6882    10.8733     7.2450 H       
 184 H184          -4.4707    10.9965     5.9961 H       
 185 H185          -4.0631    11.4492     7.6686 H       
 186 H186          -4.1662    13.4487     6.2059 H       
 187 H187          -2.4923    13.7137     4.3960 H       
 188 H188          -3.5542    12.3195     4.0851 H       
 189 H189          -3.3251     8.8432     4.5883 H       
 190 H190          -3.9140    10.4955     4.2862 H       
 191 H191          -2.6729     9.7853     3.2262 H       
 192 N192          21.1880    24.0602    32.6020 N.am    
 193 C193          21.8144    25.1902    31.9115 C.3     
 194 C194          21.3998    25.1859    30.4626 C.2     
 195 N195          21.8573    26.1400    29.6279 N.am    
 196 C196          21.4543    26.1358    28.2195 C.3     
 197 C197          22.4985    26.8448    27.3960 C.2     
 198 C198          22.5065    26.6932    25.8967 C.3     
 199 C199          23.5630    27.6225    25.2958 C.3     
 200 C200          23.1579    29.0563    25.5219 C.2     
 201 N201          23.9425    30.0568    25.0749 N.am    
 202 C202          23.6063    31.4477    25.3891 C.3     
 203 C203          24.1238    32.3485    24.2975 C.2     
 204 N204          23.9294    33.6800    24.3738 N.am    
 205 C205          24.4324    34.5558    23.3126 C.3     
 206 C206          24.6548    35.9395    23.8665 C.2     
 207 N207          25.1185    36.9195    23.0657 N.am    
 208 C208          25.3346    38.2647    23.6042 C.3     
 209 C209          25.2470    39.2728    22.4875 C.2     
 210 N210          25.4145    40.5843    22.7489 N.am    
 211 C211          25.3294    41.5643    21.6633 C.3     
 212 C212          26.6689    41.6770    20.9821 C.2     
 213 N213          26.8291    42.5247    19.9466 N.am    
 214 C214          28.1313    42.6342    19.2843 C.3     
 215 C215          28.9951    43.6154    20.0340 C.2     
 216 N216          30.2453    43.8781    19.6043 N.am    
 217 O217          28.5654    44.1688    21.0240 O.2     
 218 C218          27.9334    43.1225    17.8479 C.3     
 219 C219          27.1621    42.0676    17.0523 C.3     
 220 C220          26.8556    42.6068    15.6537 C.3     
 221 C221          28.0078    40.7979    16.9353 C.3     
 222 O222          27.6027    41.0048    21.3656 O.2     
 223 C223          24.9322    42.9265    22.2359 C.3     
 224 C224          23.5196    42.8429    22.8175 C.3     
 225 C225          23.1224    44.2051    23.3901 C.3     
 226 N226          21.7698    44.1251    23.9470 N.pl3   
 227 C227          21.1960    45.2349    24.5209 C.2     
 228 N228          21.8915    46.4197    24.5722 N.pl3   
 229 N229          19.9925    45.1637    25.0164 N.2     
 230 O230          25.0258    38.9039    21.3535 O.2     
 231 C231          26.7193    38.3388    24.2507 C.3     
 232 C232          26.7665    37.4194    25.4439 C.ar    
 233 C233          27.1644    36.1046    25.2868 C.ar    
 234 C234          27.2084    35.2599    26.3790 C.ar    
 235 C235          26.8530    35.7318    27.6342 C.ar    
 236 C236          26.4541    37.0515    27.7892 C.ar    
 237 C237          26.4171    37.8937    26.6948 C.ar    
 238 O238          26.8951    34.9026    28.7101 O.3     
 239 O239          24.4165    36.1714    25.0329 O.2     
 240 C240          23.4098    34.6195    22.1764 C.3     
 241 C241          23.2766    33.2382    21.5321 C.3     
 242 C242          22.2540    33.3019    20.3958 C.3     
 243 C243          22.1208    31.9206    19.7515 C.3     
 244 N244          21.1390    31.9817    18.6605 N.3     
 245 O245          24.7152    31.8754    23.3503 O.2     
 246 C246          24.2491    31.8393    26.7212 C.3     
 247 C247          25.7405    31.6397    26.6371 C.2     
 248 O248          26.2477    31.3083    25.5917 O.2     
 249 O249          26.5054    31.8299    27.7236 O.3     
 250 O250          22.1258    29.3099    26.1061 O.2     
 251 C251          23.6811    27.3567    23.7937 C.3     
 252 C252          24.2334    25.9480    23.5669 C.3     
 253 O253          22.3915    27.4660    23.1878 O.3     
 254 O254          23.3288    27.5343    27.9377 O.2     
 255 C255          20.1124    26.8556    28.0708 C.3     
 256 O256          20.6545    24.3237    30.0477 O.2     
 257 C257          23.3363    25.0659    32.0068 C.3     
 258 O258          23.7649    23.9033    31.2950 O.3     
 259 C259          20.9797    24.1150    33.9325 C.2     
 260 O260          21.3109    25.0999    34.5580 O.2     
 261 C261          20.3353    22.9526    34.6428 C.3     
 262 C262          20.2160    23.2694    36.1349 C.3     
 263 C263          21.1939    21.7003    34.4544 C.3     
 264 C264          19.4508    22.1448    36.8354 C.3     
 265 C265          19.3314    22.4616    38.3275 C.3     
 266 N266          18.5987    21.3848    38.9983 N.pl3   
 267 C267          18.3670    21.4505    40.3518 C.2     
 268 N268          18.8228    22.5266    41.0759 N.pl3   
 269 N269          17.7151    20.4925    40.9486 N.2     
 270 H270          20.9194    23.2741    32.1011 H       
 271 H271          21.4960    26.1226    32.3777 H       
 272 H272          22.4534    26.8295    29.9598 H       
 273 H273          21.3551    25.1071    27.8730 H       
 274 H274          22.7409    25.6608    25.6371 H       
 275 H275          21.5254    26.9539    25.4999 H       
 276 H276          24.5246    27.4369    25.7743 H       
 277 H277          24.7299    29.8560    24.5451 H       
 278 H278          22.5238    31.5519    25.4636 H       
 279 H279          23.4563    34.0584    25.1314 H       
 280 H280          25.3745    34.1611    22.9319 H       
 281 H281          25.3091    36.7340    22.1329 H       
 282 H282          24.5723    38.4836    24.3519 H       
 283 H283          25.5914    40.8793    23.6559 H       
 284 H284          24.5801    41.2416    20.9404 H       
 285 H285          26.0822    43.0623    19.6399 H       
 286 H286          28.6162    41.6581    19.2727 H       
 287 H287          30.5890    43.4355    18.8125 H       
 288 H288          30.8013    44.5097    20.0868 H       
 289 H289          27.3699    44.0556    17.8557 H       
 290 H290          28.9054    43.2890    17.3836 H       
 291 H291          26.2286    41.8364    17.5652 H       
 292 H292          27.7892    42.8381    15.1408 H       
 293 H293          26.3061    41.8553    15.0868 H       
 294 H294          26.2532    43.5114    15.7370 H       
 295 H295          28.9414    41.0291    16.4224 H       
 296 H296          28.2262    40.4137    17.9317 H       
 297 H297          27.4583    40.0463    16.3685 H       
 298 H298          25.6327    43.2084    23.0220 H       
 299 H299          24.9552    43.6744    21.4434 H       
 300 H300          22.8191    42.5610    22.0314 H       
 301 H301          23.4966    42.0950    23.6101 H       
 302 H302          23.8229    44.4870    24.1762 H       
 303 H303          23.1454    44.9530    22.5976 H       
 304 H304          21.2790    43.2892    23.9109 H       
 305 H305          22.7872    46.4726    24.2034 H       
 306 H306          21.4867    47.2026    24.9771 H       
 307 H307          19.5876    45.9467    25.4213 H       
 308 H308          27.4751    38.0337    23.5269 H       
 309 H309          26.9159    39.3616    24.5721 H       
 310 H310          27.4407    35.7377    24.3094 H       
 311 H311          27.5190    34.2329    26.2557 H       
 312 H312          26.1769    37.4212    28.7653 H       
 313 H313          26.1066    38.9211    26.8149 H       
 314 H314          27.7455    34.8983    29.1703 H       
 315 H315          22.4435    34.9296    22.5742 H       
 316 H316          23.7425    35.3389    21.4281 H       
 317 H317          24.2429    32.9281    21.1343 H       
 318 H318          22.9440    32.5188    22.2803 H       
 319 H319          21.2877    33.6120    20.7936 H       
 320 H320          22.5867    34.0213    19.6475 H       
 321 H321          23.0871    31.6105    19.3537 H       
 322 H322          21.7881    31.2012    20.4998 H       
 323 H323          21.0329    31.0809    18.2186 H       
 324 H324          20.2513    32.3287    18.9920 H       
 325 H325          24.0342    32.8864    26.9343 H       
 326 H326          23.8434    31.2157    27.5177 H       
 327 H327          27.4566    31.6898    27.6209 H       
 328 H328          24.3554    28.0876    23.3473 H       
 329 H329          23.5135    25.2132    23.9272 H       
 330 H330          24.4084    25.7935    22.5022 H       
 331 H331          25.1717    25.8339    24.1098 H       
 332 H332          22.3907    27.3095    22.2336 H       
 333 H333          20.2115    27.8843    28.4173 H       
 334 H334          19.8125    26.8525    27.0229 H       
 335 H335          19.3571    26.3428    28.6664 H       
 336 H336          23.8011    25.9505    31.5712 H       
 337 H337          23.6290    24.9797    33.0532 H       
 338 H338          24.7212    23.7613    31.3130 H       
 339 H339          19.3426    22.7783    34.2279 H       
 340 H340          21.2122    23.3561    36.5687 H       
 341 H341          19.6799    24.2095    36.2650 H       
 342 H342          20.7278    20.8595    34.9682 H       
 343 H343          21.2789    21.4746    33.3914 H       
 344 H344          22.1867    21.8746    34.8694 H       
 345 H345          18.4546    22.0581    36.4016 H       
 346 H346          19.9868    21.2047    36.7053 H       
 347 H347          20.3276    22.5484    38.7613 H       
 348 H348          18.7954    23.4017    38.4576 H       
 349 H349          18.2771    20.6256    38.4874 H       
 350 H350          19.3079    23.2396    40.6318 H       
 351 H351          18.6593    22.5729    42.0309 H       
 352 H352          17.5516    20.5388    41.9036 H       
@<TRIPOS>BOND
   1    1    2 am
   2    1   60 2
   3    1   61 1
   4    2    3 1
   5    2   59 1
   6    3    4 1
   7    3   91 1
   8    3   92 1
   9    4    5 am
  10    4   58 2
  11    5    6 1
  12    5   93 1
  13    6    7 1
  14    6   94 1
  15    6   95 1
  16    7    8 1
  17    7   57 2
  18    8    9 1
  19    8   96 1
  20    8   97 1
  21    9   10 1
  22    9   49 1
  23    9   98 1
  24   10   11 am
  25   10   48 2
  26   11   12 1
  27   11   99 1
  28   12   13 1
  29   12   43 1
  30   12  100 1
  31   13   14 am
  32   13   42 2
  33   14   15 1
  34   14  101 1
  35   15   16 1
  36   15   37 1
  37   15  102 1
  38   16   17 am
  39   16   36 2
  40   17   18 1
  41   17  103 1
  42   18   19 1
  43   18   31 1
  44   18  104 1
  45   19   20 am
  46   19   30 2
  47   20   21 1
  48   20  105 1
  49   21   22 1
  50   21   26 1
  51   21  106 1
  52   22   23 1
  53   22   25 2
  54   23   24 1
  55   23  107 1
  56   23  108 1
  57   24  109 1
  58   24  110 1
  59   24  111 1
  60   26   27 1
  61   26  112 1
  62   26  113 1
  63   27   28 1
  64   27   29 1
  65   27  114 1
  66   28  115 1
  67   28  116 1
  68   28  117 1
  69   29  118 1
  70   29  119 1
  71   29  120 1
  72   31   32 1
  73   31  121 1
  74   31  122 1
  75   32   33 1
  76   32  123 1
  77   32  124 1
  78   33   34 1
  79   33  125 1
  80   33  126 1
  81   34   35 1
  82   34  127 1
  83   34  128 1
  84   35  129 1
  85   35  130 1
  86   37   38 1
  87   37  131 1
  88   37  132 1
  89   38   39 1
  90   38  133 1
  91   38  134 1
  92   39   40 1
  93   39  135 1
  94   39  136 1
  95   40   41 1
  96   40  137 1
  97   40  138 1
  98   41  139 1
  99   41  140 1
 100   43   44 1
 101   43  141 1
 102   43  142 1
 103   44   45 1
 104   44  143 1
 105   44  144 1
 106   45   46 2
 107   45   47 am
 108   47  145 1
 109   47  146 1
 110   49   50 1
 111   49  147 1
 112   49  148 1
 113   50   51 ar
 114   50   55 ar
 115   51   52 ar
 116   51  149 1
 117   52   53 ar
 118   52  150 1
 119   53   54 ar
 120   53   56 1
 121   54   55 ar
 122   54  151 1
 123   55  152 1
 124   56  153 1
 125   61   62 1
 126   61  154 1
 127   61  155 1
 128   62   63 1
 129   62  156 1
 130   62  157 1
 131   63   64 1
 132   63   65 1
 133   63  158 1
 134   64  159 1
 135   64  160 1
 136   64  161 1
 137   65   66 1
 138   65   69 1
 139   65  162 1
 140   66   67 1
 141   66   70 1
 142   66   74 1
 143   67   68 1
 144   67   73 1
 145   67  163 1
 146   68   69 1
 147   68  164 1
 148   68  165 1
 149   69  166 1
 150   69  167 1
 151   70   71 1
 152   70  168 1
 153   70  169 1
 154   71   72 1
 155   71  170 1
 156   71  171 1
 157   72   73 1
 158   72   75 1
 159   72  172 1
 160   73   78 1
 161   73  173 1
 162   74  174 1
 163   74  175 1
 164   74  176 1
 165   75   76 1
 166   75   79 1
 167   75   83 1
 168   76   77 1
 169   76   82 1
 170   76  177 1
 171   77   78 1
 172   77  178 1
 173   77  179 1
 174   78  180 1
 175   78  181 1
 176   79   80 1
 177   79  182 1
 178   79  183 1
 179   80   81 1
 180   80  184 1
 181   80  185 1
 182   81   82 1
 183   81   84 1
 184   81  186 1
 185   82  187 1
 186   82  188 1
 187   83  189 1
 188   83  190 1
 189   83  191 1
 190   84   85 1
 191   85   86 2
 192   85   87 1
 193   87   88 1
 194   87   89 1
 195   87   90 1
 196  192  259 am
 197  192  193 1
 198  192  270 1
 199  193  194 1
 200  193  257 1
 201  193  271 1
 202  194  195 am
 203  194  256 2
 204  195  196 1
 205  195  272 1
 206  196  197 1
 207  196  255 1
 208  196  273 1
 209  197  198 1
 210  197  254 2
 211  198  199 1
 212  198  274 1
 213  198  275 1
 214  199  200 1
 215  199  251 1
 216  199  276 1
 217  200  201 am
 218  200  250 2
 219  201  202 1
 220  201  277 1
 221  202  203 1
 222  202  246 1
 223  202  278 1
 224  203  204 am
 225  203  245 2
 226  204  205 1
 227  204  279 1
 228  205  206 1
 229  205  240 1
 230  205  280 1
 231  206  207 am
 232  206  239 2
 233  207  208 1
 234  207  281 1
 235  208  209 1
 236  208  231 1
 237  208  282 1
 238  209  210 am
 239  209  230 2
 240  210  211 1
 241  210  283 1
 242  211  212 1
 243  211  223 1
 244  211  284 1
 245  212  213 am
 246  212  222 2
 247  213  214 1
 248  213  285 1
 249  214  215 1
 250  214  218 1
 251  214  286 1
 252  215  216 am
 253  215  217 2
 254  216  287 1
 255  216  288 1
 256  218  219 1
 257  218  289 1
 258  218  290 1
 259  219  220 1
 260  219  221 1
 261  219  291 1
 262  220  292 1
 263  220  293 1
 264  220  294 1
 265  221  295 1
 266  221  296 1
 267  221  297 1
 268  223  224 1
 269  223  298 1
 270  223  299 1
 271  224  225 1
 272  224  300 1
 273  224  301 1
 274  225  226 1
 275  225  302 1
 276  225  303 1
 277  226  227 1
 278  226  304 1
 279  227  228 1
 280  227  229 2
 281  228  305 1
 282  228  306 1
 283  229  307 1
 284  231  232 1
 285  231  308 1
 286  231  309 1
 287  232  233 ar
 288  232  237 ar
 289  233  234 ar
 290  233  310 1
 291  234  235 ar
 292  234  311 1
 293  235  236 ar
 294  235  238 1
 295  236  237 ar
 296  236  312 1
 297  237  313 1
 298  238  314 1
 299  240  241 1
 300  240  315 1
 301  240  316 1
 302  241  242 1
 303  241  317 1
 304  241  318 1
 305  242  243 1
 306  242  319 1
 307  242  320 1
 308  243  244 1
 309  243  321 1
 310  243  322 1
 311  244  323 1
 312  244  324 1
 313  246  247 1
 314  246  325 1
 315  246  326 1
 316  247  248 2
 317  247  249 1
 318  249  327 1
 319  251  252 1
 320  251  253 1
 321  251  328 1
 322  252  329 1
 323  252  330 1
 324  252  331 1
 325  253  332 1
 326  255  333 1
 327  255  334 1
 328  255  335 1
 329  257  258 1
 330  257  336 1
 331  257  337 1
 332  258  338 1
 333  259  260 2
 334  259  261 1
 335  261  262 1
 336  261  263 1
 337  261  339 1
 338  262  264 1
 339  262  340 1
 340  262  341 1
 341  263  342 1
 342  263  343 1
 343  263  344 1
 344  264  265 1
 345  264  345 1
 346  264  346 1
 347  265  266 1
 348  265  347 1
 349  265  348 1
 350  266  267 1
 351  266  349 1
 352  267  268 1
 353  267  269 2
 354  268  350 1
 355  268  351 1
 356  269  352 1

#	End of record

