#	Name: ASD01820085
#	Creating user name:	WinNT
#	Creation time:	15. 06. 2019 19:36

#	Modifying user name:	WinNT
#	Modification time:	15. 06. 2019 19:36

#	Program:	/corina/corina34_cracker 3.40 0067  02.08.2006

@<TRIPOS>MOLECULE
ASD01820085
  39   41    0    0    0
SMALL
NO_CHARGES


@<TRIPOS>ATOM
   1 C1            -0.0170     1.3999     0.0097 C.ar    
   2 C2             0.0021    -0.0041     0.0020 C.ar    
   3 C3             1.1954    -0.6616    -0.0129 C.ar    
   4 C4             2.3995     0.0417    -0.0205 C.ar    
   5 C5             2.4174     1.4031    -0.0134 C.ar    
   6 C6             1.2048     2.1171     0.0019 C.ar    
   7 N7             1.1917     3.4537     0.0087 N.ar    
   8 C8             0.0654     4.1241     0.0227 C.ar    
   9 C9            -1.1706     3.4808     0.0315 C.ar    
  10 C10           -1.2288     2.1164     0.0193 C.ar    
  11 C11            0.1084     5.6304     0.0298 C.3     
  12 C12           -2.5533     1.3976     0.0212 C.3     
  13 O13           -3.5517     2.2404     0.5999 O.3     
  14 C14           -2.9482     1.0521    -1.4160 C.3     
  15 C15           -2.2422    -0.1347    -3.4074 C.3     
  16 N16           -1.9214     0.1871    -2.0110 N.3     
  17 C17           -4.2933     0.3223    -1.4139 C.3     
  18 C18           -4.6746    -0.0392    -2.8521 C.3     
  19 C19           -3.5663    -0.8999    -3.4647 C.3     
  20 Cl20           1.2170    -2.3974    -0.0218 Cl      
  21 Cl21           3.9301     2.2548    -0.0237 Cl      
  22 F22            1.4340     6.0597    -0.0955 F       
  23 F23           -0.6447     6.1235    -1.0412 F       
  24 F24           -0.4243     6.1065     1.2327 F       
  25 H25           -0.9240    -0.5597     0.0082 H       
  26 H26            3.3325    -0.5021    -0.0319 H       
  27 H27           -2.0817     4.0606     0.0437 H       
  28 H28           -2.4686     0.4811     0.6050 H       
  29 H29           -3.6812     3.0761     0.1309 H       
  30 H30           -3.0333     1.9688    -1.9996 H       
  31 H31           -2.3307     0.7876    -3.9815 H       
  32 H32           -1.4483    -0.7505    -3.8298 H       
  33 H33           -1.0073     0.6079    -1.9377 H       
  34 H34           -4.2127    -0.5876    -0.8191 H       
  35 H35           -5.0583     0.9705    -0.9865 H       
  36 H36           -5.6109    -0.5973    -2.8514 H       
  37 H37           -4.7934     0.8725    -3.4375 H       
  38 H38           -3.8119    -1.1250    -4.5025 H       
  39 H39           -3.4742    -1.8291    -2.9022 H       
@<TRIPOS>BOND
   1    1    2 ar
   2    1    6 ar
   3    1   10 ar
   4    2    3 ar
   5    2   25 1
   6    3    4 ar
   7    3   20 1
   8    4    5 ar
   9    4   26 1
  10    5    6 ar
  11    5   21 1
  12    6    7 ar
  13    7    8 ar
  14    8    9 ar
  15    8   11 1
  16    9   10 ar
  17    9   27 1
  18   10   12 1
  19   11   22 1
  20   11   23 1
  21   11   24 1
  22   12   13 1
  23   12   14 1
  24   12   28 1
  25   13   29 1
  26   14   17 1
  27   14   16 1
  28   14   30 1
  29   15   16 1
  30   15   19 1
  31   15   31 1
  32   15   32 1
  33   16   33 1
  34   17   18 1
  35   17   34 1
  36   17   35 1
  37   18   19 1
  38   18   36 1
  39   18   37 1
  40   19   38 1
  41   19   39 1

#	End of record

