#	Name: ASD01810285
#	Creating user name:	WinNT
#	Creation time:	15. 06. 2019 19:24

#	Modifying user name:	WinNT
#	Modification time:	15. 06. 2019 19:24

#	Program:	/corina/corina34_cracker 3.40 0067  02.08.2006

@<TRIPOS>MOLECULE
ASD01810285
  51   54    0    0    0
SMALL
NO_CHARGES


@<TRIPOS>ATOM
   1 C1             1.1597     2.2502    -0.5159 C.ar    
   2 C2             0.7828     0.9161    -0.5004 C.ar    
   3 C3             1.7243    -0.0813    -0.3476 C.ar    
   4 C4             3.0713     0.2477    -0.2072 C.ar    
   5 C5             3.4520     1.6004    -0.2236 C.ar    
   6 C6             2.4881     2.5999    -0.3785 C.ar    
   7 N7             4.0212    -0.7401    -0.0534 N.pl3   
   8 C8             5.3264    -0.4758     0.0859 C.2     
   9 C9             5.8198     0.8134     0.0854 C.2     
  10 C10            4.8794     1.9347    -0.0742 C.2     
  11 O11            5.2649     3.0907    -0.0812 O.2     
  12 C12            3.5837    -2.1382    -0.0416 C.3     
  13 C13            3.4399    -2.6316    -1.4583 C.ar    
  14 C14            4.5229    -2.5802    -2.3204 C.ar    
  15 C15            4.3951    -3.0314    -3.6210 C.ar    
  16 C16            3.1749    -3.5382    -4.0623 C.ar    
  17 C17            2.0893    -3.5875    -3.1894 C.ar    
  18 C18            2.2286    -3.1394    -1.8916 C.ar    
  19 C19            3.0311    -4.0235    -5.4569 C.ar    
  20 C20            7.2596     1.0623     0.2415 C.2     
  21 O21            7.7293     2.3259     0.2394 O.3     
  22 O22            8.0272     0.1288     0.3725 O.2     
  23 F23            5.7053    -2.0882    -1.8900 F       
  24 F24            2.8539     3.9003    -0.3947 F       
  25 F25            1.3402    -1.3764    -0.3338 F       
  26 C26            1.8088    -4.5340    -5.9078 C.ar    
  27 C27            1.7224    -4.9741    -7.2140 C.ar    
  28 C28            2.8452    -4.8961    -8.0330 C.ar    
  29 N29            3.9878    -4.4072    -7.5746 N.ar    
  30 C30            4.1088    -3.9720    -6.3365 C.ar    
  31 N31            2.7666    -5.3371    -9.3480 N.pl3   
  32 C32            1.4819    -5.7775    -9.8974 C.3     
  33 C33            3.9685    -5.3619   -10.1854 C.3     
  34 H34            0.4114     3.0190    -0.6404 H       
  35 H35           -0.2594     0.6545    -0.6087 H       
  36 H36            6.0161    -1.2986     0.2030 H       
  37 H37            4.3222    -2.7456     0.4815 H       
  38 H38            2.6235    -2.2141     0.4688 H       
  39 H39            5.2392    -2.9907    -4.2935 H       
  40 H40            1.1413    -3.9792    -3.5273 H       
  41 H41            1.3875    -3.1779    -1.2152 H       
  42 H42            8.6838     2.4397     0.3451 H       
  43 H43            0.9536    -4.5830    -5.2501 H       
  44 H44            0.7947    -5.3743    -7.5954 H       
  45 H45            5.0565    -3.5799    -5.9981 H       
  46 H46            0.9669    -4.9268   -10.3438 H       
  47 H47            1.6539    -6.5384   -10.6586 H       
  48 H48            0.8690    -6.1948    -9.0985 H       
  49 H49            4.8204    -5.0013    -9.6089 H       
  50 H50            4.1596    -6.3826   -10.5165 H       
  51 H51            3.8195    -4.7201   -11.0537 H       
@<TRIPOS>BOND
   1    1    2 ar
   2    1    6 ar
   3    1   34 1
   4    2    3 ar
   5    2   35 1
   6    3    4 ar
   7    3   25 1
   8    4    5 ar
   9    4    7 1
  10    5    6 ar
  11    5   10 1
  12    6   24 1
  13    7    8 1
  14    7   12 1
  15    8    9 2
  16    8   36 1
  17    9   10 1
  18    9   20 1
  19   10   11 2
  20   12   13 1
  21   12   37 1
  22   12   38 1
  23   13   14 ar
  24   13   18 ar
  25   14   15 ar
  26   14   23 1
  27   15   16 ar
  28   15   39 1
  29   16   17 ar
  30   16   19 1
  31   17   18 ar
  32   17   40 1
  33   18   41 1
  34   19   26 ar
  35   19   30 ar
  36   20   21 1
  37   20   22 2
  38   21   42 1
  39   26   27 ar
  40   26   43 1
  41   27   28 ar
  42   27   44 1
  43   28   29 ar
  44   28   31 1
  45   29   30 ar
  46   30   45 1
  47   31   32 1
  48   31   33 1
  49   32   46 1
  50   32   47 1
  51   32   48 1
  52   33   49 1
  53   33   50 1
  54   33   51 1

#	End of record

