#	Name: ASD01910177
#	Creating user name:	WinNT
#	Creation time:	15. 06. 2019 19:55

#	Modifying user name:	WinNT
#	Modification time:	15. 06. 2019 19:55

#	Program:	/corina/corina34_cracker 3.40 0067  02.08.2006

@<TRIPOS>MOLECULE
ASD01910177
  40   42    0    0    0
SMALL
NO_CHARGES


@<TRIPOS>ATOM
   1 C1             0.1655     1.6632    -0.3714 C.ar    
   2 C2             0.1016     0.2850    -0.3050 C.ar    
   3 C3             1.2659    -0.4600    -0.1611 C.ar    
   4 C4             2.4934     0.1820    -0.0846 C.ar    
   5 C5             2.5542     1.5669    -0.1522 C.ar    
   6 C6             1.3865     2.3057    -0.2956 C.ar    
   7 N7             3.7895     2.2179    -0.0755 N.am    
   8 C8             4.0032     3.3436    -0.7852 C.2     
   9 C9             5.2636     4.0968    -0.6145 C.ar    
  10 N10            1.2002    -1.8552    -0.0930 N.am    
  11 C11            2.1786    -2.6034    -0.6402 C.2     
  12 C12            5.4879     5.2629    -1.3480 C.ar    
  13 C13            6.6662     5.9620    -1.1841 C.ar    
  14 C14            7.6248     5.5097    -0.2955 C.ar    
  15 C15            7.4092     4.3534     0.4357 C.ar    
  16 C16            6.2320     3.6480     0.2851 C.ar    
  17 O17            3.1593    -2.0667    -1.1176 O.2     
  18 O18            3.1595     3.7395    -1.5656 O.2     
  19 C19            2.0592    -4.0766    -0.6599 C.ar    
  20 Cl20           8.6184     3.7938     1.5485 Cl      
  21 C21            3.0707    -4.8541    -1.2258 C.ar    
  22 C22            2.9545    -6.2290    -1.2412 C.ar    
  23 C23            1.8384    -6.8384    -0.6974 C.ar    
  24 C24            0.8297    -6.0734    -0.1335 C.ar    
  25 C25            0.9370    -4.6961    -0.1074 C.ar    
  26 F26           -0.2580    -6.6754     0.3955 F       
  27 H27           -0.7404     2.2397    -0.4874 H       
  28 H28           -0.8543    -0.2142    -0.3646 H       
  29 H29            3.3997    -0.3946     0.0275 H       
  30 H30            1.4332     3.3834    -0.3486 H       
  31 H31            4.4926     1.8593     0.4885 H       
  32 H32            0.4505    -2.2845     0.3481 H       
  33 H33            4.7408     5.6171    -2.0428 H       
  34 H34            6.8405     6.8644    -1.7513 H       
  35 H35            8.5456     6.0603    -0.1715 H       
  36 H36            6.0645     2.7464     0.8556 H       
  37 H37            3.9429    -4.3803    -1.6514 H       
  38 H38            3.7369    -6.8307    -1.6795 H       
  39 H39            1.7525    -7.9149    -0.7125 H       
  40 H40            0.1508    -4.1000     0.3321 H       
@<TRIPOS>BOND
   1    1    2 ar
   2    1    6 ar
   3    1   27 1
   4    2    3 ar
   5    2   28 1
   6    3    4 ar
   7    3   10 1
   8    4    5 ar
   9    4   29 1
  10    5    6 ar
  11    5    7 1
  12    6   30 1
  13    7    8 am
  14    7   31 1
  15    8    9 1
  16    8   18 2
  17    9   12 ar
  18    9   16 ar
  19   10   11 am
  20   10   32 1
  21   11   17 2
  22   11   19 1
  23   12   13 ar
  24   12   33 1
  25   13   14 ar
  26   13   34 1
  27   14   15 ar
  28   14   35 1
  29   15   16 ar
  30   15   20 1
  31   16   36 1
  32   19   21 ar
  33   19   25 ar
  34   21   22 ar
  35   21   37 1
  36   22   23 ar
  37   22   38 1
  38   23   24 ar
  39   23   39 1
  40   24   25 ar
  41   24   26 1
  42   25   40 1

#	End of record

