#	Name: ASD02508339
#	Creating user name:	WinNT
#	Creation time:	15. 06. 2019 20:24

#	Modifying user name:	WinNT
#	Modification time:	15. 06. 2019 20:24

#	Program:	/corina/corina34_cracker 3.40 0067  02.08.2006

@<TRIPOS>MOLECULE
ASD02508339
  56   61    0    0    0
SMALL
NO_CHARGES


@<TRIPOS>ATOM
   1 C1            -0.0167     1.3818     0.0096 C.ar    
   2 C2             0.0021    -0.0041     0.0020 C.ar    
   3 C3            -1.2098    -0.6984     0.0103 C.ar    
   4 C4            -2.4045    -0.0112     0.0258 C.ar    
   5 C5            -2.4121     1.3718     0.0333 C.ar    
   6 C6            -1.2168     2.0662     0.0299 C.ar    
   7 S7            -3.9272    -0.8976     0.0355 S.o2    
   8 C8            -4.3616    -1.1696     1.7213 C.ar    
   9 C9            -5.1344    -0.2408     2.3933 C.ar    
  10 C10           -3.9340    -2.3137     2.3679 C.ar    
  11 C11           -4.2752    -2.5308     3.6947 C.ar    
  12 C12           -5.0453    -1.5933     4.3725 C.ar    
  13 C13           -5.4763    -0.4501     3.7158 C.ar    
  14 O14           -3.8532    -3.6658     4.3160 O.3     
  15 C15           -3.8982    -3.6710     5.7470 C.3     
  16 C16           -5.2591    -3.1147     6.1872 C.3     
  17 O17           -5.3853    -1.7830     5.6767 O.3     
  18 C18            1.4103     1.8820    -0.0013 C.3     
  19 C19            2.2667     0.6053    -0.0163 C.3     
  20 N20            1.3062    -0.5013    -0.0131 N.am    
  21 O21           -4.9079    -0.0164    -0.4944 O.2     
  22 O22           -3.6506    -2.1764    -0.5189 O.2     
  23 S23            1.7091    -2.1075    -0.0251 S.o2    
  24 C24            1.8523    -2.6219     1.6541 C.ar    
  25 O25            0.5893    -2.7981    -0.5622 O.2     
  26 O26            3.0136    -2.1898    -0.5826 O.2     
  27 C27            0.7465    -3.1148     2.3215 C.ar    
  28 C28            3.0711    -2.5371     2.2999 C.ar    
  29 C29            3.1870    -2.9420     3.6215 C.ar    
  30 C30            2.0735    -3.4300     4.2948 C.ar    
  31 C31            0.8546    -3.5183     3.6388 C.ar    
  32 O32            4.3955    -2.8597     4.2421 O.3     
  33 C33            4.3901    -2.9227     5.6724 C.3     
  34 C34            3.4784    -4.0810     6.0992 C.3     
  35 O35            2.1633    -3.8260     5.5939 O.3     
  36 H36           -1.2108    -1.7784     0.0041 H       
  37 H37           -3.3496     1.9079     0.0454 H       
  38 H38           -1.2211     3.1461     0.0358 H       
  39 H39           -5.4711     0.6500     1.8839 H       
  40 H40           -3.3339    -3.0397     1.8394 H       
  41 H41           -6.0760     0.2793     4.2399 H       
  42 H42           -3.7816    -4.6905     6.1147 H       
  43 H43           -3.0993    -3.0436     6.1422 H       
  44 H44           -6.0582    -3.7389     5.7874 H       
  45 H45           -5.3147    -3.0979     7.2757 H       
  46 H46            1.5981     2.4765    -0.8954 H       
  47 H47            1.6152     2.4669     0.8954 H       
  48 H48            2.8795     0.5715    -0.9172 H       
  49 H49            2.8966     0.5619     0.8722 H       
  50 H50           -0.2036    -3.1845     1.8126 H       
  51 H51            3.9344    -2.1554     1.7750 H       
  52 H52           -0.0119    -3.8986     4.1594 H       
  53 H53            5.4025    -3.0984     6.0364 H       
  54 H54            4.0098    -1.9861     6.0802 H       
  55 H55            3.8555    -5.0169     5.6868 H       
  56 H56            3.4485    -4.1437     7.1870 H       
@<TRIPOS>BOND
   1    1    2 ar
   2    1   18 1
   3    1    6 ar
   4    2    3 ar
   5    2   20 1
   6    3    4 ar
   7    3   36 1
   8    4    5 ar
   9    4    7 1
  10    5    6 ar
  11    5   37 1
  12    6   38 1
  13    7    8 1
  14    7   21 2
  15    7   22 2
  16    8    9 ar
  17    8   10 ar
  18    9   13 ar
  19    9   39 1
  20   10   11 ar
  21   10   40 1
  22   11   12 ar
  23   11   14 1
  24   12   13 ar
  25   12   17 1
  26   13   41 1
  27   14   15 1
  28   15   16 1
  29   15   42 1
  30   15   43 1
  31   16   17 1
  32   16   44 1
  33   16   45 1
  34   18   19 1
  35   18   46 1
  36   18   47 1
  37   19   20 1
  38   19   48 1
  39   19   49 1
  40   20   23 am
  41   23   24 1
  42   23   25 2
  43   23   26 2
  44   24   27 ar
  45   24   28 ar
  46   27   31 ar
  47   27   50 1
  48   28   29 ar
  49   28   51 1
  50   29   30 ar
  51   29   32 1
  52   30   31 ar
  53   30   35 1
  54   31   52 1
  55   32   33 1
  56   33   34 1
  57   33   53 1
  58   33   54 1
  59   34   35 1
  60   34   55 1
  61   34   56 1

#	End of record

