#	Name: ASD05920005
#	Creating user name:	WinNT
#	Creation time:	15. 06. 2019 21:04

#	Modifying user name:	WinNT
#	Modification time:	15. 06. 2019 21:04

#	Program:	/corina/corina34_cracker 3.40 0067  02.08.2006

@<TRIPOS>MOLECULE
ASD05920005
  38   40    0    0    0
SMALL
NO_CHARGES


@<TRIPOS>ATOM
   1 C1            -0.0162     1.3400     0.0094 C.2     
   2 N2             0.0021    -0.0041     0.0020 N.am    
   3 C3            -1.1451    -0.7145     0.0092 C.2     
   4 C4            -2.3795    -0.0301     0.0246 C.2     
   5 C5            -2.3832     1.3591     0.0321 C.2     
   6 N6            -1.1715     2.0310     0.0297 N.am    
   7 N7            -3.7037    -0.4200     0.0352 N.pl3   
   8 C8            -4.4452     0.7049     0.0483 C.2     
   9 N9            -3.6596     1.7515     0.0464 N.2     
  10 C10           -1.1474     3.4958     0.0380 C.3     
  11 O11            1.0375     1.9470     0.0026 O.2     
  12 C12            1.2867    -0.7081    -0.0145 C.3     
  13 O13           -1.1157    -1.9321     0.0019 O.2     
  14 C14           -4.2072    -1.7957     0.0319 C.3     
  15 C15           -4.2498    -2.3185     1.4447 C.2     
  16 N16           -4.6827    -3.5716     1.6867 N.am    
  17 O17           -3.8946    -1.6114     2.3638 O.2     
  18 C18           -4.7241    -4.0798     3.0602 C.3     
  19 C19           -5.2420    -5.4950     3.0568 C.2     
  20 C20           -4.4926    -6.6067     2.9477 C.2     
  21 C21           -5.3813    -7.7055     2.9898 C.2     
  22 C22           -6.6206    -7.1996     3.1221 C.2     
  23 O23           -6.5296    -5.8604     3.1679 O.3     
  24 H24           -5.5247     0.7378     0.0584 H       
  25 H25           -1.1361     3.8532     1.0676 H       
  26 H26           -0.2542     3.8475    -0.4785 H       
  27 H27           -2.0339     3.8766    -0.4691 H       
  28 H28            2.0992     0.0184    -0.0187 H       
  29 H29            1.3672    -1.3381     0.8713 H       
  30 H30            1.3495    -1.3286    -0.9085 H       
  31 H31           -5.2109    -1.8143    -0.3928 H       
  32 H32           -3.5473    -2.4227    -0.5678 H       
  33 H33           -4.9668    -4.1371     0.9516 H       
  34 H34           -3.7204    -4.0612     3.4849 H       
  35 H35           -5.3840    -3.4528     3.6598 H       
  36 H36           -3.4183    -6.6513     2.8468 H       
  37 H37           -5.1160    -8.7506     2.9274 H       
  38 H38           -7.5336    -7.7731     3.1848 H       
@<TRIPOS>BOND
   1    1    2 am
   2    1   11 2
   3    1    6 am
   4    2    3 am
   5    2   12 1
   6    3    4 1
   7    3   13 2
   8    4    5 2
   9    4    7 1
  10    5    6 1
  11    5    9 1
  12    6   10 1
  13    7    8 1
  14    7   14 1
  15    8    9 2
  16    8   24 1
  17   10   25 1
  18   10   26 1
  19   10   27 1
  20   12   28 1
  21   12   29 1
  22   12   30 1
  23   14   15 1
  24   14   31 1
  25   14   32 1
  26   15   16 am
  27   15   17 2
  28   16   18 1
  29   16   33 1
  30   18   19 1
  31   18   34 1
  32   18   35 1
  33   19   20 2
  34   19   23 1
  35   20   21 1
  36   20   36 1
  37   21   22 2
  38   21   37 1
  39   22   23 1
  40   22   38 1

#	End of record

