#	Name: ASD01913860
#	Creating user name:	WinNT
#	Creation time:	15. 06. 2019 20:02

#	Modifying user name:	WinNT
#	Modification time:	15. 06. 2019 20:02

#	Program:	/corina/corina34_cracker 3.40 0067  02.08.2006

@<TRIPOS>MOLECULE
ASD01913860
  45   48    0    0    0
SMALL
NO_CHARGES


@<TRIPOS>ATOM
   1 C1            -0.0173     1.4278     0.0099 C.ar    
   2 C2             0.0021    -0.0041     0.0020 C.1     
   3 C3             0.0180    -1.1779    -0.0044 C.1     
   4 C4             0.0374    -2.6098    -0.0123 C.ar    
   5 C5            -1.1615    -3.3383    -0.0048 C.ar    
   6 C6             0.1560    -5.3344    -0.0280 C.ar    
   7 N7             1.2706    -4.6189    -0.0406 N.ar    
   8 C8             1.2501    -3.3022    -0.0334 C.ar    
   9 C9            -1.0911    -4.7169    -0.0128 C.ar    
  10 C10            1.1759     2.1545     0.0024 C.ar    
  11 N11            1.1587     3.4711     0.0092 N.ar    
  12 C12           -1.2335     2.1238     0.0194 C.ar    
  13 C13            0.0302     4.1538     0.0232 C.ar    
  14 N14            0.2331    -6.7250    -0.0369 N.am    
  15 C15           -0.8027    -7.6033    -0.1214 C.2     
  16 N16           -0.3983    -8.8751    -0.3867 N.am    
  17 C17            0.9940    -8.7734    -0.7925 C.3     
  18 C18            1.4368    -7.5361     0.0358 C.3     
  19 O19           -1.9670    -7.2853     0.0250 O.2     
  20 C20           -1.2011   -10.0963    -0.2844 C.3     
  21 C21            1.9520    -9.8911    -0.4383 C.3     
  22 C22            3.3343    -9.4632    -0.9694 C.3     
  23 C23            3.7773    -8.1291    -0.3782 C.3     
  24 C24            2.7183    -7.0329    -0.5878 C.3     
  25 C25           -1.1965     3.5086     0.0262 C.ar    
  26 F26           -2.3435     4.2223     0.0401 F       
  27 H27           -2.1160    -2.8330     0.0074 H       
  28 H28            2.1798    -2.7526    -0.0442 H       
  29 H29           -1.9938    -5.3097    -0.0070 H       
  30 H30            2.1209     1.6317    -0.0087 H       
  31 H31           -2.1749     1.5946     0.0209 H       
  32 H32            0.0626     5.2333     0.0286 H       
  33 H33            1.0548    -8.5454    -1.8566 H       
  34 H34            1.6167    -7.8289     1.0702 H       
  35 H35           -2.2083    -9.8423     0.0458 H       
  36 H36           -1.2498   -10.5818    -1.2591 H       
  37 H37           -0.7423   -10.7733     0.4362 H       
  38 H38            1.9909   -10.0217     0.6431 H       
  39 H39            1.6381   -10.8185    -0.9172 H       
  40 H40            4.0668   -10.2277    -0.7104 H       
  41 H41            3.2857    -9.3726    -2.0546 H       
  42 H42            3.9576    -8.2566     0.6892 H       
  43 H43            4.7054    -7.8191    -0.8584 H       
  44 H44            2.5746    -6.8532    -1.6532 H       
  45 H45            3.0315    -6.1135    -0.0932 H       
@<TRIPOS>BOND
   1    1    2 1
   2    1   10 ar
   3    1   12 ar
   4    2    3 3
   5    3    4 1
   6    4    5 ar
   7    4    8 ar
   8    5    9 ar
   9    5   27 1
  10    6    7 ar
  11    6   14 1
  12    6    9 ar
  13    7    8 ar
  14    8   28 1
  15    9   29 1
  16   10   11 ar
  17   10   30 1
  18   11   13 ar
  19   12   25 ar
  20   12   31 1
  21   13   25 ar
  22   13   32 1
  23   14   15 am
  24   14   18 1
  25   15   16 am
  26   15   19 2
  27   16   17 1
  28   16   20 1
  29   17   18 1
  30   17   21 1
  31   17   33 1
  32   18   24 1
  33   18   34 1
  34   20   35 1
  35   20   36 1
  36   20   37 1
  37   21   22 1
  38   21   38 1
  39   21   39 1
  40   22   23 1
  41   22   40 1
  42   22   41 1
  43   23   24 1
  44   23   42 1
  45   23   43 1
  46   24   44 1
  47   24   45 1
  48   25   26 1

#	End of record

