#	Name: ASD01150743
#	Creating user name:	WinNT
#	Creation time:	15. 06. 2019 19:04

#	Modifying user name:	WinNT
#	Modification time:	15. 06. 2019 19:04

#	Program:	/corina/corina34_cracker 3.40 0067  02.08.2006

@<TRIPOS>MOLECULE
ASD01150743
  39   41    0    0    0
SMALL
NO_CHARGES


@<TRIPOS>ATOM
   1 C1             0.0079     1.5281     0.4508 C.2     
   2 C2            -0.8825     1.1635    -0.7091 C.3     
   3 N3             3.5916     2.2490    -0.1235 N.ar    
   4 C4             2.4739     1.6045     0.0854 C.ar    
   5 C5             1.2461     2.2790     0.2172 C.ar    
   6 C6             1.2205     3.6821     0.1217 C.ar    
   7 C7             2.4496     4.3492    -0.1051 C.ar    
   8 C8             2.5067     5.7448    -0.2127 C.ar    
   9 C9             3.7199     6.3592    -0.4339 C.ar    
  10 C10            4.8877     5.6013    -0.5513 C.ar    
  11 C11            4.8555     4.2442    -0.4506 C.ar    
  12 C12            3.6363     3.5846    -0.2244 C.ar    
  13 O13            3.7811     7.7127    -0.5391 O.3     
  14 C14            5.0689     8.2881    -0.7683 C.3     
  15 F15            5.5937     7.7938    -1.9673 F       
  16 F16            4.9501     9.6796    -0.8499 F       
  17 F17            5.9236     7.9541     0.2877 F       
  18 C18            2.5008     0.1012     0.1877 C.3     
  19 C19           -0.0446     4.4342     0.2529 C.ar    
  20 C20           -0.7409     4.4297     1.4636 C.ar    
  21 C21           -1.9218     5.1350     1.5792 C.ar    
  22 C22           -2.4158     5.8456     0.4977 C.ar    
  23 C23           -1.7306     5.8533    -0.7041 C.ar    
  24 C24           -0.5462     5.1573    -0.8313 C.ar    
  25 Cl25          -2.7898     5.1308     3.0826 Cl      
  26 O26           -0.3019     1.2048     1.5783 O.2     
  27 H27           -0.4863     1.6045    -1.6238 H       
  28 H28           -0.9170     0.0791    -0.8138 H       
  29 H29           -1.8881     1.5433    -0.5286 H       
  30 H30            1.6064     6.3347    -0.1233 H       
  31 H31            5.8301     6.0996    -0.7249 H       
  32 H32            5.7682     3.6744    -0.5443 H       
  33 H33            2.5634    -0.1906     1.2361 H       
  34 H34            1.5908    -0.3091    -0.2499 H       
  35 H35            3.3678    -0.2840    -0.3490 H       
  36 H36           -0.3565     3.8756     2.3072 H       
  37 H37           -3.3402     6.3959     0.5930 H       
  38 H38           -2.1215     6.4091    -1.5435 H       
  39 H39           -0.0104     5.1681    -1.7689 H       
@<TRIPOS>BOND
   1    1    2 1
   2    1    5 1
   3    1   26 2
   4    2   27 1
   5    2   28 1
   6    2   29 1
   7    3    4 ar
   8    3   12 ar
   9    4    5 ar
  10    4   18 1
  11    5    6 ar
  12    6    7 ar
  13    6   19 1
  14    7    8 ar
  15    7   12 ar
  16    8    9 ar
  17    8   30 1
  18    9   10 ar
  19    9   13 1
  20   10   11 ar
  21   10   31 1
  22   11   12 ar
  23   11   32 1
  24   13   14 1
  25   14   15 1
  26   14   16 1
  27   14   17 1
  28   18   33 1
  29   18   34 1
  30   18   35 1
  31   19   20 ar
  32   19   24 ar
  33   20   21 ar
  34   20   36 1
  35   21   22 ar
  36   21   25 1
  37   22   23 ar
  38   22   37 1
  39   23   24 ar
  40   23   38 1
  41   24   39 1

#	End of record

