#	Name: ASD08710086
#	Creating user name:	WinNT
#	Creation time:	15. 06. 2019 21:19

#	Modifying user name:	WinNT
#	Modification time:	15. 06. 2019 21:19

#	Program:	/corina/corina34_cracker 3.40 0067  02.08.2006

@<TRIPOS>MOLECULE
ASD08710086
  50   52    0    0    0
SMALL
NO_CHARGES


@<TRIPOS>ATOM
   1 C1             0.5025     2.5885    -1.4220 C.1     
   2 C2             0.4821     3.8824    -0.8089 C.ar    
   3 C3            -0.3522     4.1278     0.2837 C.ar    
   4 C4            -0.3669     5.3765     0.8694 C.ar    
   5 C5             0.4427     6.3849     0.3767 C.ar    
   6 C6             1.2713     6.1488    -0.7057 C.ar    
   7 C7             1.3006     4.9027    -1.2972 C.ar    
   8 N8             0.5186     1.5620    -1.9084 N.1     
   9 C9            -1.2669     5.6434     2.0483 C.3     
  10 S10            0.4176     7.9770     1.1311 S.o2    
  11 O11            1.3857     8.7606     0.4468 O.2     
  12 O12           -0.9496     8.3493     1.2370 O.2     
  13 N13            0.9739     7.7944     2.6801 N.am    
  14 C14            2.4168     7.7574     2.9572 C.3     
  15 C15            2.7441     8.8373     3.9959 C.3     
  16 N16            1.8039     8.7097     5.1182 N.am    
  17 C17            0.3610     8.7467     4.8411 C.3     
  18 C18            0.0337     7.6725     3.8030 C.3     
  19 C19            4.1756     8.6466     4.5012 C.3     
  20 C20            2.2566     8.5611     6.3789 C.2     
  21 O21            3.4487     8.6259     6.6082 O.2     
  22 C22            1.4604     7.2188     8.3263 C.ar    
  23 C23            1.3039     8.3194     7.4825 C.ar    
  24 C24            0.2295     9.1912     7.6991 C.ar    
  25 C25           -0.6335     8.9212     8.7454 C.ar    
  26 C26           -0.4098     7.8077     9.5383 C.ar    
  27 N27            0.6120     7.0028     9.3097 N.ar    
  28 C28            2.6066     6.2655     8.1057 C.3     
  29 Cl29          -1.4902     7.4642    10.8530 Cl      
  30 H30           -0.9848     3.3418     0.6690 H       
  31 H31            1.9000     6.9405    -1.0856 H       
  32 H32            1.9514     4.7183    -2.1391 H       
  33 H33           -0.7335     5.4166     2.9714 H       
  34 H34           -1.5639     6.6921     2.0485 H       
  35 H35           -2.1544     5.0145     1.9776 H       
  36 H36            2.6889     6.7777     3.3498 H       
  37 H37            2.9707     7.9531     2.0391 H       
  38 H38            2.6417     9.8235     3.5431 H       
  39 H39           -0.1929     8.5510     5.7592 H       
  40 H40            0.0889     9.7264     4.4485 H       
  41 H41           -0.9857     7.8120     3.4434 H       
  42 H42            0.1323     6.6865     4.2573 H       
  43 H43            4.8589     8.6124     3.6526 H       
  44 H44            4.4453     9.4788     5.1515 H       
  45 H45            4.2426     7.7128     5.0594 H       
  46 H46            0.0790    10.0527     7.0653 H       
  47 H47           -1.4727     9.5718     8.9425 H       
  48 H48            3.4488     6.5588     8.7324 H       
  49 H49            2.2938     5.2546     8.3671 H       
  50 H50            2.9061     6.2937     7.0581 H       
@<TRIPOS>BOND
   1    1    2 1
   2    1    8 3
   3    2    3 ar
   4    2    7 ar
   5    3    4 ar
   6    3   30 1
   7    4    5 ar
   8    4    9 1
   9    5    6 ar
  10    5   10 1
  11    6    7 ar
  12    6   31 1
  13    7   32 1
  14    9   33 1
  15    9   34 1
  16    9   35 1
  17   10   11 2
  18   10   12 2
  19   10   13 am
  20   13   14 1
  21   13   18 1
  22   14   15 1
  23   14   36 1
  24   14   37 1
  25   15   16 1
  26   15   19 1
  27   15   38 1
  28   16   17 1
  29   16   20 am
  30   17   18 1
  31   17   39 1
  32   17   40 1
  33   18   41 1
  34   18   42 1
  35   19   43 1
  36   19   44 1
  37   19   45 1
  38   20   21 2
  39   20   23 1
  40   22   23 ar
  41   22   27 ar
  42   22   28 1
  43   23   24 ar
  44   24   25 ar
  45   24   46 1
  46   25   26 ar
  47   25   47 1
  48   26   27 ar
  49   26   29 1
  50   28   48 1
  51   28   49 1
  52   28   50 1

#	End of record

