#	Name: ASD01882420
#	Creating user name:	WinNT
#	Creation time:	15. 06. 2019 19:44

#	Modifying user name:	WinNT
#	Modification time:	15. 06. 2019 19:44

#	Program:	/corina/corina34_cracker 3.40 0067  02.08.2006

@<TRIPOS>MOLECULE
ASD01882420
  58   63    0    0    0
SMALL
NO_CHARGES


@<TRIPOS>ATOM
   1 C1             0.4340     1.0968     0.3932 C.3     
   2 N2             0.2388    -0.3460     0.1523 N.3     
   3 C3             1.6588    -0.5425     0.5026 C.3     
   4 C4             1.9100     0.8953     0.0447 C.3     
   5 C5             2.2212     1.0294    -1.4428 C.3     
   6 C6             2.1993     2.5133    -1.8290 C.3     
   7 N7             3.0774     3.2526    -0.9125 N.pl3   
   8 C8             2.8447     3.1534     0.5344 C.3     
   9 C9             2.8711     1.6741     0.9376 C.3     
  10 C10           -0.5997    -0.9077     1.1225 C.ar    
  11 C11           -1.7258    -1.6277     0.7376 C.ar    
  12 C12           -2.5515    -2.1816     1.6982 C.ar    
  13 C13           -2.2574    -2.0195     3.0419 C.ar    
  14 C14           -1.1371    -1.3031     3.4261 C.ar    
  15 C15           -0.3056    -0.7519     2.4695 C.ar    
  16 F16           -3.0657    -2.5610     3.9792 F       
  17 F17           -2.0125    -1.7853    -0.5732 F       
  18 C18            5.1329     6.1668    -1.7886 C.2     
  19 C19            4.0723     5.3975    -1.2806 C.2     
  20 C20            4.1156     4.0357    -1.4080 C.2     
  21 C21            5.2206     3.4302    -2.0452 C.2     
  22 C22            6.2266     4.1872    -2.5251 C.2     
  23 N23            6.1931     5.5457    -2.4030 N.pl3   
  24 N24            6.5043     7.6772    -2.4099 N.2     
  25 N25            5.3773     7.4679    -1.8256 N.2     
  26 C26            7.0413     6.5449    -2.7808 C.2     
  27 C27            2.9024     6.0638    -0.6035 C.3     
  28 F28            3.1247     6.1058     0.7771 F       
  29 F29            2.7604     7.3667    -1.0928 F       
  30 F30            1.7360     5.3373    -0.8661 F       
  31 C31            8.3565     6.3744    -3.4965 C.3     
  32 C32            8.1232     6.4126    -5.0082 C.3     
  33 C33            9.3554     6.3734    -5.9143 C.3     
  34 C34            8.4467     5.1473    -5.8051 C.3     
  35 H35           -0.0972     1.7316    -0.3160 H       
  36 H36            0.2684     1.3907     1.4297 H       
  37 H37            1.8264    -0.6946     1.5689 H       
  38 H38            2.1594    -1.2888    -0.1144 H       
  39 H39            3.2080     0.6142    -1.6475 H       
  40 H40            1.4709     0.4911    -2.0220 H       
  41 H41            2.5572     2.6301    -2.8519 H       
  42 H42            1.1820     2.8967    -1.7494 H       
  43 H43            3.6277     3.6918     1.0683 H       
  44 H44            1.8723     3.5814     0.7784 H       
  45 H45            2.5632     1.5745     1.9785 H       
  46 H46            3.8806     1.2813     0.8161 H       
  47 H47           -3.4264    -2.7406     1.4007 H       
  48 H48           -0.9102    -1.1783     4.4745 H       
  49 H49            0.5705    -0.1967     2.7705 H       
  50 H50            5.2597     2.3558    -2.1481 H       
  51 H51            7.0673     3.7142    -3.0108 H       
  52 H52            9.0319     7.1815    -3.2126 H       
  53 H53            8.7985     5.4169    -3.2212 H       
  54 H54            7.2748     7.0124    -5.3379 H       
  55 H55            9.3175     6.9470    -6.8405 H       
  56 H56           10.3322     6.3204    -5.4336 H       
  57 H57            8.8257     4.2876    -5.2525 H       
  58 H58            7.8111     4.9142    -6.6593 H       
@<TRIPOS>BOND
   1    1    2 1
   2    1    4 1
   3    1   35 1
   4    1   36 1
   5    2    3 1
   6    2   10 1
   7    3    4 1
   8    3   37 1
   9    3   38 1
  10    4    5 1
  11    4    9 1
  12    5    6 1
  13    5   39 1
  14    5   40 1
  15    6    7 1
  16    6   41 1
  17    6   42 1
  18    7    8 1
  19    7   20 1
  20    8    9 1
  21    8   43 1
  22    8   44 1
  23    9   45 1
  24    9   46 1
  25   10   11 ar
  26   10   15 ar
  27   11   12 ar
  28   11   17 1
  29   12   13 ar
  30   12   47 1
  31   13   14 ar
  32   13   16 1
  33   14   15 ar
  34   14   48 1
  35   15   49 1
  36   18   19 1
  37   18   23 1
  38   18   25 2
  39   19   20 2
  40   19   27 1
  41   20   21 1
  42   21   22 2
  43   21   50 1
  44   22   23 1
  45   22   51 1
  46   23   26 1
  47   24   25 1
  48   24   26 2
  49   26   31 1
  50   27   28 1
  51   27   29 1
  52   27   30 1
  53   31   32 1
  54   31   52 1
  55   31   53 1
  56   32   33 1
  57   32   34 1
  58   32   54 1
  59   33   34 1
  60   33   55 1
  61   33   56 1
  62   34   57 1
  63   34   58 1

#	End of record

