#	Name: ASD00843944
#	Creating user name:	WinNT
#	Creation time:	15. 06. 2019 18:48

#	Modifying user name:	WinNT
#	Modification time:	15. 06. 2019 18:48

#	Program:	/corina/corina34_cracker 3.40 0067  02.08.2006

@<TRIPOS>MOLECULE
ASD00843944
  86   91    0    0    0
SMALL
NO_CHARGES


@<TRIPOS>ATOM
   1 F1            -0.0973    -3.1246     4.7250 F       
   2 N2            -0.0159     1.3183     0.0093 N.ar    
   3 C3             0.0021    -0.0041     0.0020 C.ar    
   4 C4             1.2069    -0.6955    -0.0132 C.ar    
   5 C5             2.3925     0.0180    -0.0207 C.ar    
   6 C6             2.3308     1.4049    -0.0127 C.ar    
   7 C7             1.0980     2.0259     0.0025 C.ar    
   8 C8             1.2224    -2.2024    -0.0209 C.3     
   9 C9             0.4764    -2.7341    -1.2259 C.2     
  10 O10            2.5880    -2.6957    -0.0100 O.3     
  11 C11            3.3812    -2.3219    -1.0317 C.2     
  12 N12            4.6598    -2.7450    -1.0818 N.am    
  13 O13            2.9442    -1.6031    -1.9086 O.2     
  14 C14            5.5433    -2.3485    -2.1889 C.3     
  15 C15            6.8402    -1.7847    -1.5987 C.3     
  16 N16            7.4150    -2.7623    -0.6649 N.3     
  17 C17            6.5189    -3.0017     0.4742 C.3     
  18 C18            5.2105    -3.6104    -0.0278 C.3     
  19 C19            8.7444    -2.3355    -0.2083 C.3     
  20 C20            9.2578    -3.3108     0.8546 C.3     
  21 C21           10.6675    -2.8960     1.2821 C.3     
  22 N22           11.5571    -2.9044     0.1138 N.3     
  23 C23           11.1107    -1.9410    -0.9005 C.3     
  24 C24            9.7142    -2.3273    -1.3932 C.3     
  25 C25           12.9480    -2.6459     0.5093 C.3     
  26 O26            0.7566    -2.5392    -2.3898 O.2     
  27 N27           -0.5539    -3.4627    -0.7649 N.am    
  28 C28            0.4505    -2.7460     1.1600 C.ar    
  29 C29           -0.5988    -3.4907     0.6311 C.ar    
  30 C30            0.6193    -2.6223     2.5215 C.ar    
  31 C31           -0.2615    -3.2439     3.3894 C.ar    
  32 C32           -1.3224    -3.9967     2.8756 C.ar    
  33 C33           -1.4874    -4.1183     1.4962 C.ar    
  34 C34           -1.0160    -5.8566    -2.0415 C.ar    
  35 C35           -1.3466    -6.8956    -1.1912 C.ar    
  36 C36           -0.1972    -6.0864    -3.1318 C.ar    
  37 C37            0.2926    -7.3551    -3.3740 C.ar    
  38 C38           -0.0376    -8.3992    -2.5223 C.ar    
  39 C39           -0.8590    -8.1660    -1.4288 C.ar    
  40 O40            0.4426    -9.6484    -2.7587 O.3     
  41 H41           -1.9864    -6.7136    -0.3403 H       
  42 C42            0.0613   -10.6746    -1.8403 C.3     
  43 S43           -1.6450    -4.2387    -1.7395 S.o2    
  44 O44           -2.8259    -4.4051    -0.9668 O.2     
  45 O45           -1.6221    -3.5598    -2.9876 O.2     
  46 O46           -1.1673    -0.6919     0.0099 O.3     
  47 C47           -2.3720     0.0766     0.0260 C.3     
  48 C48           -3.5777    -0.8652     0.0330 C.3     
  49 F49           -3.5507    -1.6659    -1.1140 F       
  50 F50           -3.5280    -1.6782     1.1704 F       
  51 C51           -2.2386    -4.6434     3.7661 C.1     
  52 N52           -2.9655    -5.1564     4.4724 N.1     
  53 H53            3.3442    -0.4925    -0.0322 H       
  54 H54            3.2375     1.9916    -0.0178 H       
  55 H55            1.0444     3.1046     0.0084 H       
  56 H56            5.7695    -3.2179    -2.8062 H       
  57 H57            5.0534    -1.5846    -2.7927 H       
  58 H58            7.5502    -1.5882    -2.4022 H       
  59 H59            6.6253    -0.8574    -1.0678 H       
  60 H60            6.9958    -3.6879     1.1742 H       
  61 H61            6.3084    -2.0574     0.9762 H       
  62 H62            4.5008    -3.6834     0.7962 H       
  63 H63            5.4018    -4.6016    -0.4390 H       
  64 H64            8.6793    -1.3341     0.2173 H       
  65 H65            8.5943    -3.2893     1.7191 H       
  66 H66            9.2849    -4.3188     0.4409 H       
  67 H67           10.6375    -1.8932     1.7085 H       
  68 H68           11.0416    -3.5967     2.0285 H       
  69 H69           11.0785    -0.9427    -0.4639 H       
  70 H70           11.8066    -1.9481    -1.7394 H       
  71 H71            9.7484    -3.3198    -1.8423 H       
  72 H72            9.3767    -1.6031    -2.1347 H       
  73 H73           13.2774    -3.4177     1.2050 H       
  74 H74           13.5854    -2.6577    -0.3748 H       
  75 H75           13.0134    -1.6704     0.9913 H       
  76 H76            1.4404    -2.0397     2.9122 H       
  77 H77           -2.3067    -4.6997     1.0998 H       
  78 H78            0.0594    -5.2733    -3.7947 H       
  79 H79            0.9319    -7.5342    -4.2259 H       
  80 H80           -1.1178    -8.9773    -0.7645 H       
  81 H81            0.5116   -11.6196    -2.1439 H       
  82 H82            0.4056   -10.4130    -0.8397 H       
  83 H83           -1.0242   -10.7740    -1.8366 H       
  84 H84           -2.3931     0.7004     0.9196 H       
  85 H85           -2.4108     0.7099    -0.8602 H       
  86 H86           -4.4966    -0.2790     0.0452 H       
@<TRIPOS>BOND
   1    1   31 1
   2    2    3 ar
   3    2    7 ar
   4    3    4 ar
   5    3   46 1
   6    4    5 ar
   7    4    8 1
   8    5    6 ar
   9    5   53 1
  10    6    7 ar
  11    6   54 1
  12    7   55 1
  13    8    9 1
  14    8   10 1
  15    8   28 1
  16    9   26 2
  17    9   27 am
  18   10   11 1
  19   11   12 am
  20   11   13 2
  21   12   14 1
  22   12   18 1
  23   14   15 1
  24   14   56 1
  25   14   57 1
  26   15   16 1
  27   15   58 1
  28   15   59 1
  29   16   17 1
  30   16   19 1
  31   17   18 1
  32   17   60 1
  33   17   61 1
  34   18   62 1
  35   18   63 1
  36   19   20 1
  37   19   24 1
  38   19   64 1
  39   20   21 1
  40   20   65 1
  41   20   66 1
  42   21   22 1
  43   21   67 1
  44   21   68 1
  45   22   23 1
  46   22   25 1
  47   23   24 1
  48   23   69 1
  49   23   70 1
  50   24   71 1
  51   24   72 1
  52   25   73 1
  53   25   74 1
  54   25   75 1
  55   27   43 am
  56   27   29 1
  57   28   29 ar
  58   28   30 ar
  59   29   33 ar
  60   30   31 ar
  61   30   76 1
  62   31   32 ar
  63   32   33 ar
  64   32   51 1
  65   33   77 1
  66   34   35 ar
  67   34   36 ar
  68   34   43 1
  69   35   41 1
  70   35   39 ar
  71   36   37 ar
  72   36   78 1
  73   37   38 ar
  74   37   79 1
  75   38   39 ar
  76   38   40 1
  77   39   80 1
  78   40   42 1
  79   42   81 1
  80   42   82 1
  81   42   83 1
  82   43   44 2
  83   43   45 2
  84   46   47 1
  85   47   48 1
  86   47   84 1
  87   47   85 1
  88   48   49 1
  89   48   50 1
  90   48   86 1
  91   51   52 3

#	End of record

