#	Name: ASD07300977
#	Creating user name:	WinNT
#	Creation time:	15. 06. 2019 21:10

#	Modifying user name:	WinNT
#	Modification time:	15. 06. 2019 21:10

#	Program:	/corina/corina34_cracker 3.40 0067  02.08.2006

@<TRIPOS>MOLECULE
ASD07300977
  45   48    0    0    0
SMALL
NO_CHARGES


@<TRIPOS>ATOM
   1 C1             0.5130     1.8156     1.1062 C.2     
   2 C2             0.4383     0.4214     0.9720 C.2     
   3 C3             1.5086    -0.2601     0.4597 C.2     
   4 C4             2.7035     0.4889     0.0657 C.2     
   5 N5             2.7278     1.7964     0.2100 N.2     
   6 N6             1.6247     2.4766     0.7355 N.am    
   7 O7            -0.4385     2.4337     1.5575 O.2     
   8 C8             1.6780     3.8672     0.8779 C.ar    
   9 C9             2.7759     4.4632     1.4859 C.ar    
  10 C10            2.8255     5.8361     1.6245 C.ar    
  11 C11            1.7836     6.6178     1.1593 C.ar    
  12 C12            0.6892     6.0278     0.5541 C.ar    
  13 C13            0.6360     4.6556     0.4068 C.ar    
  14 C14            4.0160     6.4835     2.2838 C.3     
  15 F15            4.9810     6.7807     1.3154 F       
  16 F16            3.6132     7.6636     2.9182 F       
  17 F17            4.5589     5.6074     3.2297 F       
  18 N18            4.6581     0.1998    -1.5283 N.pl3   
  19 N19            5.6533    -0.7655    -1.7277 N.2     
  20 C20            5.4835    -1.7253    -0.8531 C.2     
  21 C21            4.3779    -1.4165    -0.0607 C.2     
  22 C22            3.8753    -0.2197    -0.4902 C.2     
  23 C23            4.4981     1.3848    -2.2579 C.ar    
  24 C24            5.6062     2.1542    -2.5872 C.ar    
  25 C25            5.4452     3.3218    -3.3070 C.ar    
  26 C26            4.1820     3.7252    -3.6994 C.ar    
  27 C27            3.0765     2.9615    -3.3726 C.ar    
  28 C28            3.2315     1.7897    -2.6583 C.ar    
  29 O29            1.4635    -1.6064     0.3197 O.3     
  30 C30            0.3056    -2.2730     0.8266 C.3     
  31 H31           -0.4543    -0.1086     1.2702 H       
  32 H32            3.5895     3.8534     1.8500 H       
  33 H33            1.8247     7.6914     1.2692 H       
  34 H34           -0.1230     6.6410     0.1926 H       
  35 H35           -0.2169     4.1957    -0.0703 H       
  36 H36            6.0973    -2.6091    -0.7609 H       
  37 H37            3.9879    -2.0165     0.7482 H       
  38 H38            6.5929     1.8400    -2.2804 H       
  39 H39            6.3066     3.9206    -3.5635 H       
  40 H40            4.0586     4.6388    -4.2619 H       
  41 H41            2.0912     3.2796    -3.6799 H       
  42 H42            2.3682     1.1912    -2.4075 H       
  43 H43            0.4343    -3.3508     0.7273 H       
  44 H44            0.1708    -2.0184     1.8778 H       
  45 H45           -0.5715    -1.9581     0.2612 H       
@<TRIPOS>BOND
   1    1    2 1
   2    1    6 am
   3    1    7 2
   4    2    3 2
   5    2   31 1
   6    3    4 1
   7    3   29 1
   8    4    5 2
   9    4   22 1
  10    5    6 1
  11    6    8 1
  12    8    9 ar
  13    8   13 ar
  14    9   10 ar
  15    9   32 1
  16   10   11 ar
  17   10   14 1
  18   11   12 ar
  19   11   33 1
  20   12   13 ar
  21   12   34 1
  22   13   35 1
  23   14   15 1
  24   14   16 1
  25   14   17 1
  26   18   19 1
  27   18   22 1
  28   18   23 1
  29   19   20 2
  30   20   21 1
  31   20   36 1
  32   21   22 2
  33   21   37 1
  34   23   24 ar
  35   23   28 ar
  36   24   25 ar
  37   24   38 1
  38   25   26 ar
  39   25   39 1
  40   26   27 ar
  41   26   40 1
  42   27   28 ar
  43   27   41 1
  44   28   42 1
  45   29   30 1
  46   30   43 1
  47   30   44 1
  48   30   45 1

#	End of record

