#	Name: ASD03091252
#	Creating user name:	WinNT
#	Creation time:	15. 06. 2019 20:30

#	Modifying user name:	WinNT
#	Modification time:	15. 06. 2019 20:30

#	Program:	/corina/corina34_cracker 3.40 0067  02.08.2006

@<TRIPOS>MOLECULE
ASD03091252
  65   70    0    0    0
SMALL
NO_CHARGES


@<TRIPOS>ATOM
   1 N1             0.6907     1.4460    -0.1338 N.2     
   2 C2             0.4489     0.1620    -0.0810 C.2     
   3 N3             1.4316    -0.7773     0.0796 N.am    
   4 C4             2.7267    -0.4008     0.1923 C.2     
   5 C5             3.0223     1.0386     0.1352 C.ar    
   6 C6             4.3230     1.5255     0.2422 C.ar    
   7 C7             4.5437     2.8912     0.1822 C.ar    
   8 C8             3.4752     3.7727     0.0166 C.ar    
   9 C9             2.1952     3.3103    -0.0897 C.ar    
  10 C10            1.9430     1.9360    -0.0324 C.ar    
  11 O11            3.6132    -1.2225     0.3360 O.2     
  12 C12            1.0793    -2.1984     0.1301 C.3     
  13 C13            0.9480    -2.7422    -1.2939 C.3     
  14 C14            0.7321    -4.2636    -1.3548 C.3     
  15 C15           -0.2721    -3.9965    -2.4884 C.3     
  16 C16           -0.4660    -2.5972    -1.8808 C.3     
  17 C17            2.0544    -2.2425    -2.2251 C.3     
  18 O18            2.1553    -0.8206    -2.1247 O.3     
  19 C19           -0.9513    -0.2966    -0.1997 C.ar    
  20 C20           -1.4953    -1.1443     0.7666 C.ar    
  21 C21           -2.8048    -1.5692     0.6493 C.ar    
  22 C22           -3.5763    -1.1547    -0.4250 C.ar    
  23 C23           -3.0412    -0.3147    -1.3846 C.ar    
  24 C24           -1.7365     0.1210    -1.2754 C.ar    
  25 F25           -3.3338    -2.3901     1.5827 F       
  26 N26            8.7446     3.5743    -0.2844 N.3     
  27 C27            8.1963     2.8298     0.8596 C.3     
  28 C28            6.8036     2.3076     0.5429 C.3     
  29 N29            5.8450     3.3896     0.2885 N.3     
  30 C30            6.2209     4.1420    -0.9166 C.3     
  31 C31            7.0567     5.3576    -0.5443 C.3     
  32 C32            8.4714     5.0100    -0.1271 C.3     
  33 C33            8.3988     3.0755    -1.5981 C.3     
  34 C34            6.9133     3.2071    -1.8913 C.3     
  35 H35            5.1512     0.8444     0.3711 H       
  36 H36            3.6632     4.8353    -0.0276 H       
  37 H37            1.3782     4.0051    -0.2172 H       
  38 H38            1.8588    -2.7474     0.6583 H       
  39 H39            0.1311    -2.3193     0.6541 H       
  40 H40            1.6147    -4.8174    -1.6749 H       
  41 H41            0.2755    -4.6762    -0.4552 H       
  42 H42            0.1815    -3.9832    -3.4795 H       
  43 H43           -1.1636    -4.6217    -2.4383 H       
  44 H44           -1.2501    -2.5542    -1.1250 H       
  45 H45           -0.5506    -1.8057    -2.6255 H       
  46 H46            3.0033    -2.6952    -1.9377 H       
  47 H47            1.8166    -2.5182    -3.2525 H       
  48 H48            2.8385    -0.4339    -2.6893 H       
  49 H49           -0.8941    -1.4677     1.6035 H       
  50 H50           -4.5993    -1.4893    -0.5132 H       
  51 H51           -3.6476     0.0047    -2.2193 H       
  52 H52           -1.3223     0.7807    -2.0234 H       
  53 H53            8.8515     1.9893     1.0884 H       
  54 H54            8.1440     3.4896     1.7256 H       
  55 H55            6.8580     1.6695    -0.3392 H       
  56 H56            6.4495     1.7130     1.3850 H       
  57 H57            5.3061     4.4935    -1.3936 H       
  58 H58            7.1002     6.0279    -1.4027 H       
  59 H59            6.5678     5.8791     0.2786 H       
  60 H60            8.6125     5.2868     0.9177 H       
  61 H61            9.1725     5.5750    -0.7414 H       
  62 H62            8.9580     3.6358    -2.3474 H       
  63 H63            8.6801     2.0244    -1.6625 H       
  64 H64            6.4508     2.2222    -1.8268 H       
  65 H65            6.7846     3.5915    -2.9031 H       
@<TRIPOS>BOND
   1    1    2 2
   2    1   10 1
   3    2    3 1
   4    2   19 1
   5    3    4 am
   6    3   12 1
   7    4    5 1
   8    4   11 2
   9    5    6 ar
  10    5   10 ar
  11    6    7 ar
  12    6   35 1
  13    7    8 ar
  14    7   29 1
  15    8    9 ar
  16    8   36 1
  17    9   10 ar
  18    9   37 1
  19   12   13 1
  20   12   38 1
  21   12   39 1
  22   13   14 1
  23   13   16 1
  24   13   17 1
  25   14   15 1
  26   14   40 1
  27   14   41 1
  28   15   16 1
  29   15   42 1
  30   15   43 1
  31   16   44 1
  32   16   45 1
  33   17   18 1
  34   17   46 1
  35   17   47 1
  36   18   48 1
  37   19   20 ar
  38   19   24 ar
  39   20   21 ar
  40   20   49 1
  41   21   22 ar
  42   21   25 1
  43   22   23 ar
  44   22   50 1
  45   23   24 ar
  46   23   51 1
  47   24   52 1
  48   26   27 1
  49   26   32 1
  50   26   33 1
  51   27   28 1
  52   27   53 1
  53   27   54 1
  54   28   29 1
  55   28   55 1
  56   28   56 1
  57   29   30 1
  58   30   31 1
  59   30   34 1
  60   30   57 1
  61   31   32 1
  62   31   58 1
  63   31   59 1
  64   32   60 1
  65   32   61 1
  66   33   34 1
  67   33   62 1
  68   33   63 1
  69   34   64 1
  70   34   65 1

#	End of record

