#	Name: ASD02038858
#	Creating user name:	WinNT
#	Creation time:	15. 06. 2019 20:17

#	Modifying user name:	WinNT
#	Modification time:	15. 06. 2019 20:17

#	Program:	/corina/corina34_cracker 3.40 0067  02.08.2006

@<TRIPOS>MOLECULE
ASD02038858
  50   52    0    0    0
SMALL
NO_CHARGES


@<TRIPOS>ATOM
   1 C1            -1.2801    -0.8500     0.4556 C.2     
   2 C2            -0.0631    -0.0354     0.2956 C.2     
   3 N3             1.1355    -0.6352     0.1536 N.am    
   4 C4             1.2416    -2.0929     0.2539 C.3     
   5 C5             1.2201    -2.6943    -1.1277 C.ar    
   6 C6             2.4069    -3.0171    -1.7589 C.ar    
   7 C7             2.3906    -3.5687    -3.0269 C.ar    
   8 C8             1.1879    -3.7985    -3.6660 C.ar    
   9 C9            -0.0047    -3.4758    -3.0344 C.ar    
  10 C10            0.0141    -2.9279    -1.7602 C.ar    
  11 C11            2.3322     0.1706    -0.1010 C.3     
  12 C12            3.6863    -3.9190    -3.7123 C.3     
  13 O13           -1.1894    -3.7006    -3.6612 O.3     
  14 C14           -1.1328    -4.2718    -4.9699 C.3     
  15 F15           -0.4981    -5.5170    -4.9081 F       
  16 F16           -2.4314    -4.4343    -5.4643 F       
  17 F17           -0.4136    -3.4233    -5.8184 F       
  18 C18            2.1132     1.0135    -1.3538 C.3     
  19 C19            3.4344     1.6506    -1.7925 C.3     
  20 S20            4.0055     2.7768    -0.4853 S.3     
  21 C21            3.9888     1.7037     0.9815 C.3     
  22 C22            2.6052     1.0607     1.1079 C.3     
  23 O23           -0.1400     1.1784     0.2916 O.2     
  24 N24           -1.3395    -2.2059     0.4892 N.2     
  25 C25           -2.5800    -2.5692     0.6432 C.2     
  26 N26           -3.3604    -1.4595     0.7138 N.pl3   
  27 C27           -2.5520    -0.3793     0.6029 C.2     
  28 C28           -4.8151    -1.4359     0.8855 C.3     
  29 H29            2.1757    -2.3559     0.7502 H       
  30 H30            0.4019    -2.4794     0.8315 H       
  31 H31            3.3484    -2.8379    -1.2611 H       
  32 H32            1.1757    -4.2287    -4.6565 H       
  33 H33           -0.9128    -2.6758    -1.2665 H       
  34 H34            3.1838    -0.4914    -0.2581 H       
  35 H35            3.9610    -4.9450    -3.4675 H       
  36 H36            3.5641    -3.8232    -4.7912 H       
  37 H37            4.4708    -3.2421    -3.3740 H       
  38 H38            1.7337     0.3793    -2.1549 H       
  39 H39            1.3868     1.7976    -1.1400 H       
  40 H40            4.1794     0.8716    -1.9546 H       
  41 H41            3.2815     2.2100    -2.7154 H       
  42 H42            4.7446     0.9258     0.8735 H       
  43 H43            4.1980     2.2978     1.8711 H       
  44 H44            1.8466     1.8416     1.1609 H       
  45 H45            2.5673     0.4592     2.0161 H       
  46 H46           -2.9320    -3.5884     0.7045 H       
  47 H47           -2.8566     0.6568     0.6203 H       
  48 H48           -5.0551    -1.4096     1.9484 H       
  49 H49           -5.2241    -0.5506     0.3986 H       
  50 H50           -5.2484    -2.3300     0.4372 H       
@<TRIPOS>BOND
   1    1    2 1
   2    1   24 1
   3    1   27 2
   4    2    3 am
   5    2   23 2
   6    3    4 1
   7    3   11 1
   8    4    5 1
   9    4   29 1
  10    4   30 1
  11    5    6 ar
  12    5   10 ar
  13    6    7 ar
  14    6   31 1
  15    7    8 ar
  16    7   12 1
  17    8    9 ar
  18    8   32 1
  19    9   10 ar
  20    9   13 1
  21   10   33 1
  22   11   18 1
  23   11   22 1
  24   11   34 1
  25   12   35 1
  26   12   36 1
  27   12   37 1
  28   13   14 1
  29   14   15 1
  30   14   16 1
  31   14   17 1
  32   18   19 1
  33   18   38 1
  34   18   39 1
  35   19   20 1
  36   19   40 1
  37   19   41 1
  38   20   21 1
  39   21   22 1
  40   21   42 1
  41   21   43 1
  42   22   44 1
  43   22   45 1
  44   24   25 2
  45   25   26 1
  46   25   46 1
  47   26   27 1
  48   26   28 1
  49   27   47 1
  50   28   48 1
  51   28   49 1
  52   28   50 1

#	End of record

