#	Name: ASD00100071
#	Creating user name:	WinNT
#	Creation time:	15. 06. 2019 18:30

#	Modifying user name:	WinNT
#	Modification time:	15. 06. 2019 18:30

#	Program:	/corina/corina34_cracker 3.40 0067  02.08.2006

@<TRIPOS>MOLECULE
ASD00100071
  67   71    0    0    0
SMALL
NO_CHARGES


@<TRIPOS>ATOM
   1 C1            -0.0180     1.4749     0.0102 C.2     
   2 C2             0.0021    -0.0041     0.0020 C.ar    
   3 C3             1.2206    -0.6855    -0.0133 C.ar    
   4 C4             1.2396    -2.0627    -0.0204 C.ar    
   5 C5             0.0397    -2.7776    -0.0123 C.ar    
   6 C6            -1.1792    -2.0956     0.0030 C.ar    
   7 C7            -1.1975    -0.7185     0.0155 C.ar    
   8 O8             1.0262     2.0969     0.0035 O.2     
   9 N9            -1.1942     2.1328     0.0193 N.am    
  10 C10            0.0591    -4.2094    -0.0202 C.1     
  11 N11            0.0745    -5.3453    -0.0264 N.1     
  12 C12           -1.2141     3.5977     0.0274 C.3     
  13 C13           -2.5311     4.0932    -0.5733 C.3     
  14 C14           -2.5519     5.6230    -0.5649 C.3     
  15 C15           -2.4262     6.1268     0.8743 C.3     
  16 C16           -1.1092     5.6314     1.4750 C.3     
  17 C17           -1.0885     4.1015     1.4666 C.3     
  18 C18           -2.4470     7.6567     0.8827 C.3     
  19 C19           -2.4471     8.1588     2.3279 C.3     
  20 N20           -2.4670     9.6276     2.3360 N.3     
  21 C21           -2.7058    10.1433     3.6901 C.3     
  22 C22           -2.8649    11.6644     3.6374 C.3     
  23 C23           -1.5940    12.2856     3.0513 C.3     
  24 C24           -1.3415    11.6960     1.6609 C.3     
  25 C25           -1.2266    10.1739     1.7709 C.3     
  26 O26           -2.5442    15.7581     2.3729 O.3     
  27 C27           -2.6985    14.4301     2.2310 C.2     
  28 C28           -1.7677    13.7785     2.9412 C.2     
  29 C29           -0.9515    14.8112     3.5909 C.ar    
  30 C30           -1.5037    16.0375     3.1837 C.ar    
  31 C31            0.1501    14.7885     4.4444 C.ar    
  32 C32            0.6935    15.9749     4.8859 C.ar    
  33 C33            0.1489    17.1858     4.4843 C.ar    
  34 C34           -0.9406    17.2220     3.6404 C.ar    
  35 H35            2.1484    -0.1327    -0.0199 H       
  36 H36            2.1822    -2.5897    -0.0326 H       
  37 H37           -2.1071    -2.6481     0.0089 H       
  38 H38           -2.1399    -0.1912     0.0318 H       
  39 H39           -2.0276     1.6365     0.0206 H       
  40 H40           -0.3801     3.9756    -0.5640 H       
  41 H41           -2.6206     3.7342    -1.5986 H       
  42 H42           -3.3651     3.7152     0.0180 H       
  43 H43           -1.7179     6.0009    -1.1563 H       
  44 H44           -3.4901     5.9760    -0.9929 H       
  45 H45           -3.2602     5.7489     1.4656 H       
  46 H46           -0.2752     6.0093     0.8836 H       
  47 H47           -1.0197     5.9903     2.5003 H       
  48 H48           -1.9225     3.7236     2.0579 H       
  49 H49           -0.1502     3.7485     1.8945 H       
  50 H50           -1.5645     8.0349     0.3667 H       
  51 H51           -3.3443     8.0107     0.3750 H       
  52 H52           -3.3296     7.7806     2.8439 H       
  53 H53           -1.5498     7.8048     2.8356 H       
  54 H54           -3.6146     9.6968     4.0937 H       
  55 H55           -1.8610     9.8884     4.3300 H       
  56 H56           -3.7180    11.9196     3.0088 H       
  57 H57           -3.0265    12.0485     4.6446 H       
  58 H58           -0.7471    12.0634     3.7005 H       
  59 H59           -2.1706    11.9516     1.0012 H       
  60 H60           -0.4148    12.1026     1.2560 H       
  61 H61           -0.3887     9.9189     2.4198 H       
  62 H62           -1.0610     9.7497     0.7806 H       
  63 H63           -3.4622    13.9570     1.6315 H       
  64 H64            0.5749    13.8464     4.7582 H       
  65 H65            1.5469    15.9622     5.5477 H       
  66 H66            0.5827    18.1100     4.8367 H       
  67 H67           -1.3558    18.1709     3.3344 H       
@<TRIPOS>BOND
   1    1    2 1
   2    1    8 2
   3    1    9 am
   4    2    3 ar
   5    2    7 ar
   6    3    4 ar
   7    3   35 1
   8    4    5 ar
   9    4   36 1
  10    5    6 ar
  11    5   10 1
  12    6    7 ar
  13    6   37 1
  14    7   38 1
  15    9   12 1
  16    9   39 1
  17   10   11 3
  18   12   13 1
  19   12   17 1
  20   12   40 1
  21   13   14 1
  22   13   41 1
  23   13   42 1
  24   14   15 1
  25   14   43 1
  26   14   44 1
  27   15   16 1
  28   15   18 1
  29   15   45 1
  30   16   17 1
  31   16   46 1
  32   16   47 1
  33   17   48 1
  34   17   49 1
  35   18   19 1
  36   18   50 1
  37   18   51 1
  38   19   20 1
  39   19   52 1
  40   19   53 1
  41   20   21 1
  42   20   25 1
  43   21   22 1
  44   21   54 1
  45   21   55 1
  46   22   23 1
  47   22   56 1
  48   22   57 1
  49   23   24 1
  50   23   28 1
  51   23   58 1
  52   24   25 1
  53   24   59 1
  54   24   60 1
  55   25   61 1
  56   25   62 1
  57   26   27 1
  58   26   30 1
  59   27   28 2
  60   27   63 1
  61   28   29 1
  62   29   30 ar
  63   29   31 ar
  64   30   34 ar
  65   31   32 ar
  66   31   64 1
  67   32   33 ar
  68   32   65 1
  69   33   34 ar
  70   33   66 1
  71   34   67 1

#	End of record

