#	Name: ASD05430002
#	Creating user name:	WinNT
#	Creation time:	15. 06. 2019 20:59

#	Modifying user name:	WinNT
#	Modification time:	15. 06. 2019 20:59

#	Program:	/corina/corina34_cracker 3.40 0067  02.08.2006

@<TRIPOS>MOLECULE
ASD05430002
  59   65    0    0    0
SMALL
NO_CHARGES


@<TRIPOS>ATOM
   1 C1            -0.1315     1.1598    -0.7393 C.ar    
   2 C2            -0.0368    -0.0352    -0.0231 C.ar    
   3 C3            -1.1489    -0.5478     0.6271 C.ar    
   4 C4            -2.3619     0.1114     0.5774 C.ar    
   5 C5            -2.4832     1.3069    -0.1307 C.ar    
   6 C6            -1.3579     1.8341    -0.8014 C.ar    
   7 C7            -4.9427    -0.2105    -0.3294 C.3     
   8 C8            -4.9221     1.3044    -0.2005 C.2     
   9 C9            -3.7727     2.0080    -0.1844 C.2     
  10 C10           -6.0883    -0.5898    -1.2771 C.3     
  11 C11           -7.4837    -0.1183    -0.8482 C.3     
  12 N12           -7.4119     1.2966    -0.4900 N.pl3   
  13 C13           -6.2458     1.9554    -0.0945 C.2     
  14 C14           -8.4762     2.3028    -0.4796 C.3     
  15 O15           -7.9270     3.3538     0.3424 O.3     
  16 N16           -6.5236     3.1326     0.3614 N.2     
  17 N17            1.1846    -0.7179     0.0382 N.pl3   
  18 C18            1.8023    -1.1832     1.1704 C.2     
  19 C19            2.9463    -1.7739     0.7757 C.2     
  20 N20            3.0299    -1.6751    -0.5593 N.2     
  21 C21            1.9782    -1.0494    -1.0133 C.2     
  22 C22           -5.7839    -0.6284    -2.7741 C.3     
  23 C23           -5.9891    -1.9327    -2.0007 C.3     
  24 C24           -8.7476     2.8048    -1.8743 C.ar    
  25 C25           -8.4267     2.0194    -2.9657 C.ar    
  26 C26           -9.3226     4.0481    -2.0612 C.ar    
  27 C27           -9.5728     4.5091    -3.3397 C.ar    
  28 C28           -9.2470     3.7256    -4.4338 C.ar    
  29 C29           -8.6756     2.4785    -4.2452 C.ar    
  30 F30           -9.4911     4.1753    -5.6841 F       
  31 C31           -9.7502     1.7350     0.1493 C.3     
  32 O32            0.7555     1.8820    -1.4541 O.3     
  33 C33            3.9582    -2.4317     1.6782 C.3     
  34 C34           -1.1357     3.0291    -1.6146 C.2     
  35 N35            0.1117     3.0272    -1.9761 N.2     
  36 H36           -1.0660    -1.4729     1.1782 H       
  37 H37           -3.2195    -0.3007     1.0883 H       
  38 H38           -3.9946    -0.5583    -0.7397 H       
  39 H39           -5.1091    -0.6613     0.6489 H       
  40 H40           -3.7999     3.0873    -0.2110 H       
  41 H41           -8.1840    -0.2515    -1.6728 H       
  42 H42           -7.8162    -0.6970     0.0136 H       
  43 H43            1.4410    -1.0929     2.1841 H       
  44 H44            1.7762    -0.8263    -2.0506 H       
  45 H45           -6.5751    -0.3182    -3.4568 H       
  46 H46           -4.7692    -0.3836    -3.0880 H       
  47 H47           -5.1094    -2.5459    -1.8055 H       
  48 H48           -6.9153    -2.4805    -2.1744 H       
  49 H49           -7.9810     1.0467    -2.8185 H       
  50 H50           -9.5766     4.6591    -1.2077 H       
  51 H51          -10.0226     5.4801    -3.4855 H       
  52 H52           -8.4207     1.8666    -5.0979 H       
  53 H53           -9.5440     1.4294     1.1751 H       
  54 H54          -10.5280     2.4987     0.1471 H       
  55 H55          -10.0863     0.8725    -0.4262 H       
  56 H56            3.7066    -3.4853     1.7991 H       
  57 H57            4.9507    -2.3435     1.2364 H       
  58 H58            3.9492    -1.9420     2.6520 H       
  59 H59           -1.8710     3.7811    -1.8599 H       
@<TRIPOS>BOND
   1    1    2 ar
   2    1   32 1
   3    1    6 ar
   4    2    3 ar
   5    2   17 1
   6    3    4 ar
   7    3   36 1
   8    4    5 ar
   9    4   37 1
  10    5    6 ar
  11    5    9 1
  12    6   34 1
  13    7    8 1
  14    7   10 1
  15    7   38 1
  16    7   39 1
  17    8    9 2
  18    8   13 1
  19    9   40 1
  20   10   11 1
  21   10   22 1
  22   10   23 1
  23   11   12 1
  24   11   41 1
  25   11   42 1
  26   12   13 1
  27   12   14 1
  28   13   16 2
  29   14   15 1
  30   14   24 1
  31   14   31 1
  32   15   16 1
  33   17   18 1
  34   17   21 1
  35   18   19 2
  36   18   43 1
  37   19   20 1
  38   19   33 1
  39   20   21 2
  40   21   44 1
  41   22   23 1
  42   22   45 1
  43   22   46 1
  44   23   47 1
  45   23   48 1
  46   24   25 ar
  47   24   26 ar
  48   25   29 ar
  49   25   49 1
  50   26   27 ar
  51   26   50 1
  52   27   28 ar
  53   27   51 1
  54   28   29 ar
  55   28   30 1
  56   29   52 1
  57   31   53 1
  58   31   54 1
  59   31   55 1
  60   32   35 1
  61   33   56 1
  62   33   57 1
  63   33   58 1
  64   34   35 2
  65   34   59 1

#	End of record

