#	Name: ASD03332187
#	Creating user name:	WinNT
#	Creation time:	15. 06. 2019 20:40

#	Modifying user name:	WinNT
#	Modification time:	15. 06. 2019 20:40

#	Program:	/corina/corina34_cracker 3.40 0067  02.08.2006

@<TRIPOS>MOLECULE
ASD03332187
  46   49    0    0    0
SMALL
NO_CHARGES


@<TRIPOS>ATOM
   1 C1            -0.0152     1.4901    -0.0074 C.3     
   2 N2            -0.0270     0.0206    -0.0288 N.3     
   3 C3             0.4304    -0.4964    -1.3312 C.3     
   4 C4             1.7259     0.1917    -1.6765 C.2     
   5 N5             2.1688     1.3186    -1.0596 N.pl3   
   6 C6             1.4324     1.9977     0.0103 C.3     
   7 C7             2.6520    -0.1477    -2.6077 C.2     
   8 N8             3.6468     0.7671    -2.5494 N.2     
   9 C9             3.3616     1.6508    -1.6194 C.2     
  10 C10            4.1985     2.8120    -1.2448 C.ar    
  11 C11            2.5863    -1.3044    -3.5184 C.2     
  12 O12            1.6922    -2.1205    -3.4013 O.2     
  13 N13            3.5169    -1.4578    -4.4812 N.am    
  14 C14            5.2328     3.2294    -2.0829 C.ar    
  15 C15            6.0097     4.3130    -1.7279 C.ar    
  16 C16            5.7648     4.9852    -0.5438 C.ar    
  17 C17            4.7409     4.5760     0.2918 C.ar    
  18 C18            3.9530     3.4977    -0.0549 C.ar    
  19 C19           -1.3593    -0.5001     0.3058 C.3     
  20 C20            4.5325    -0.4212    -4.7250 C.3     
  21 C21            5.9116    -1.0903    -4.7429 C.3     
  22 O22            5.8908    -2.1870    -5.6598 O.3     
  23 C23            4.9748    -3.2267    -5.3081 C.3     
  24 C24            3.5512    -2.6695    -5.3154 C.3     
  25 H25           -0.5214     1.8695    -0.8950 H       
  26 H26           -0.5341     1.8437     0.8836 H       
  27 H27            0.5912    -1.5724    -1.2646 H       
  28 H28           -0.3161    -0.2814    -2.0957 H       
  29 H29            1.4467     3.0743    -0.1595 H       
  30 H30            1.8900     1.7705     0.9732 H       
  31 H31            5.4253     2.7052    -3.0073 H       
  32 H32            6.8110     4.6369    -2.3756 H       
  33 H33            6.3757     5.8328    -0.2704 H       
  34 H34            4.5552     5.1044     1.2152 H       
  35 H35            3.1540     3.1791     0.5982 H       
  36 H36           -2.0963    -0.0785    -0.3777 H       
  37 H37           -1.3584    -1.5862     0.2143 H       
  38 H38           -1.6117    -0.2218     1.3290 H       
  39 H39            4.3445     0.0581    -5.6858 H       
  40 H40            4.4958     0.3230    -3.9295 H       
  41 H41            6.6633    -0.3666    -5.0579 H       
  42 H42            6.1523    -1.4551    -3.7444 H       
  43 H43            5.0525    -4.0399    -6.0297 H       
  44 H44            5.2120    -3.5992    -4.3116 H       
  45 H45            2.8637    -3.4135    -4.9131 H       
  46 H46            3.2618    -2.4149    -6.3350 H       
@<TRIPOS>BOND
   1    1    2 1
   2    1    6 1
   3    1   25 1
   4    1   26 1
   5    2    3 1
   6    2   19 1
   7    3    4 1
   8    3   27 1
   9    3   28 1
  10    4    5 1
  11    4    7 2
  12    5    6 1
  13    5    9 1
  14    6   29 1
  15    6   30 1
  16    7    8 1
  17    7   11 1
  18    8    9 2
  19    9   10 1
  20   10   14 ar
  21   10   18 ar
  22   11   12 2
  23   11   13 am
  24   13   20 1
  25   13   24 1
  26   14   15 ar
  27   14   31 1
  28   15   16 ar
  29   15   32 1
  30   16   17 ar
  31   16   33 1
  32   17   18 ar
  33   17   34 1
  34   18   35 1
  35   19   36 1
  36   19   37 1
  37   19   38 1
  38   20   21 1
  39   20   39 1
  40   20   40 1
  41   21   22 1
  42   21   41 1
  43   21   42 1
  44   22   23 1
  45   23   24 1
  46   23   43 1
  47   23   44 1
  48   24   45 1
  49   24   46 1

#	End of record

