#	Name: ASD02198045
#	Creating user name:	WinNT
#	Creation time:	15. 06. 2019 20:18

#	Modifying user name:	WinNT
#	Modification time:	15. 06. 2019 20:18

#	Program:	/corina/corina34_cracker 3.40 0067  02.08.2006

@<TRIPOS>MOLECULE
ASD02198045
  55   57    0    0    0
SMALL
NO_CHARGES


@<TRIPOS>ATOM
   1 C1            -0.0187     1.3477    -0.2631 C.2     
   2 C2             0.0073    -0.0300    -0.2121 C.2     
   3 C3            -1.1767    -0.8348    -0.2432 C.1     
   4 S4             1.5603     1.9881    -0.2060 S.3     
   5 C5             2.2770     0.3874    -0.1119 C.2     
   6 C6             1.2898    -0.5684    -0.1275 C.2     
   7 C7             3.6583     0.1228    -0.0326 C.2     
   8 O8             4.0519    -1.0200     0.1308 O.2     
   9 C9             4.6305     1.2297    -0.1475 C.ar    
  10 N10            1.5439    -1.9299    -0.0648 N.pl3   
  11 N11           -1.1642     2.1034    -0.3538 N.pl3   
  12 N12           -2.1160    -1.4733    -0.2678 N.1     
  13 C13           -1.0756     3.5650    -0.4015 C.3     
  14 C14           -3.7206     6.2363    -0.4057 C.3     
  15 N15           -2.3936     5.6237    -0.5487 N.3     
  16 C16           -2.4824     4.1582    -0.5008 C.3     
  17 C17            5.2814     1.7121     0.9893 C.ar    
  18 C18            6.1906     2.7482     0.8745 C.ar    
  19 C19            6.4570     3.3089    -0.3680 C.ar    
  20 C20            5.8170     2.8371    -1.4974 C.ar    
  21 C21            4.9076     1.7960    -1.3983 C.ar    
  22 C22           -3.5747     7.7569    -0.3139 C.3     
  23 C23           -2.8859     8.2760    -1.5791 C.3     
  24 C24           -1.5271     7.5866    -1.7305 C.3     
  25 C25           -1.7324     6.0709    -1.7812 C.3     
  26 O26            6.8251     3.2193     1.9812 O.3     
  27 C27            7.7515     4.2906     1.7912 C.3     
  28 O28            4.2791     1.3331    -2.5094 O.3     
  29 C29            4.6029     1.9659    -3.7490 C.3     
  30 H30            2.4575    -2.2506    -0.0063 H       
  31 H31            0.8081    -2.5618    -0.0794 H       
  32 H32           -2.0307     1.6687    -0.3862 H       
  33 H33           -0.5908     3.9293     0.5042 H       
  34 H34           -0.4923     3.8654    -1.2719 H       
  35 H35           -4.3332     5.9818    -1.2706 H       
  36 H36           -4.1977     5.8619     0.5000 H       
  37 H37           -2.9673     3.7938    -1.4065 H       
  38 H38           -3.0657     3.8577     0.3696 H       
  39 H39            5.0753     1.2775     1.9562 H       
  40 H40            7.1676     4.1179    -0.4513 H       
  41 H41            6.0289     3.2777    -2.4604 H       
  42 H42           -4.5608     8.2123    -0.2235 H       
  43 H43           -2.9736     8.0128     0.5587 H       
  44 H44           -3.5055     8.0545    -2.4481 H       
  45 H45           -2.7409     9.3533    -1.4990 H       
  46 H46           -1.0504     7.9203    -2.6521 H       
  47 H47           -0.8939     7.8398    -0.8802 H       
  48 H48           -0.7655     5.5764    -1.8746 H       
  49 H49           -2.3543     5.8172    -2.6396 H       
  50 H50            8.5432     3.9704     1.1138 H       
  51 H51            7.2324     5.1484     1.3637 H       
  52 H52            8.1857     4.5700     2.7512 H       
  53 H53            4.3542     3.0256    -3.6919 H       
  54 H54            5.6688     1.8530    -3.9471 H       
  55 H55            4.0327     1.5017    -4.5537 H       
@<TRIPOS>BOND
   1    1    2 2
   2    1    4 1
   3    1   11 1
   4    2    3 1
   5    2    6 1
   6    3   12 3
   7    4    5 1
   8    5    6 2
   9    5    7 1
  10    6   10 1
  11    7    8 2
  12    7    9 1
  13    9   17 ar
  14    9   21 ar
  15   10   30 1
  16   10   31 1
  17   11   13 1
  18   11   32 1
  19   13   16 1
  20   13   33 1
  21   13   34 1
  22   14   15 1
  23   14   22 1
  24   14   35 1
  25   14   36 1
  26   15   16 1
  27   15   25 1
  28   16   37 1
  29   16   38 1
  30   17   18 ar
  31   17   39 1
  32   18   19 ar
  33   18   26 1
  34   19   20 ar
  35   19   40 1
  36   20   21 ar
  37   20   41 1
  38   21   28 1
  39   22   23 1
  40   22   42 1
  41   22   43 1
  42   23   24 1
  43   23   44 1
  44   23   45 1
  45   24   25 1
  46   24   46 1
  47   24   47 1
  48   25   48 1
  49   25   49 1
  50   26   27 1
  51   27   50 1
  52   27   51 1
  53   27   52 1
  54   28   29 1
  55   29   53 1
  56   29   54 1
  57   29   55 1

#	End of record

