#	Name: ASD02038679
#	Creating user name:	WinNT
#	Creation time:	15. 06. 2019 20:17

#	Modifying user name:	WinNT
#	Modification time:	15. 06. 2019 20:17

#	Program:	/corina/corina34_cracker 3.40 0067  02.08.2006

@<TRIPOS>MOLECULE
ASD02038679
  40   41    0    0    0
SMALL
NO_CHARGES


@<TRIPOS>ATOM
   1 C1            -0.0167     1.3772     0.0096 C.ar    
   2 C2             0.0021    -0.0041     0.0020 C.ar    
   3 C3             1.2080    -0.6802    -0.0131 C.ar    
   4 C4             1.2255    -2.1871    -0.0219 C.3     
   5 C5             1.2180    -2.6888    -1.4673 C.3     
   6 C6             1.2355    -4.1957    -1.4760 C.2     
   7 N7             1.2324    -4.8628    -2.6471 N.am    
   8 N8             1.2486    -6.2637    -2.6552 N.am    
   9 C9             1.2455    -6.9309    -3.8263 C.2     
  10 C10            0.0546    -9.1721    -5.9004 C.ar    
  11 C11            0.0464    -9.6253    -7.2060 C.ar    
  12 C12            1.2402    -9.8390    -7.8716 C.ar    
  13 C13            2.4427    -9.5986    -7.2290 C.ar    
  14 C14            2.4491    -9.1445    -5.9222 C.ar    
  15 C15            1.2555    -8.9319    -5.2587 C.ar    
  16 C16            1.1759     2.0860     0.0020 C.ar    
  17 C17            2.3846     1.4052    -0.0132 C.ar    
  18 C18            2.3980     0.0239    -0.0207 C.ar    
  19 C19            1.2630    -8.4378    -3.8350 C.3     
  20 O20            1.2286    -6.3185    -4.8730 O.2     
  21 Cl21           1.2305   -10.4088    -9.5114 Cl      
  22 O22            1.2523    -4.8080    -0.4293 O.2     
  23 Cl23           3.9417    -9.8668    -8.0626 Cl      
  24 O24            1.1601     3.4449     0.0090 O.3     
  25 H25           -0.9589     1.9049     0.0170 H       
  26 H26           -0.9260    -0.5563     0.0083 H       
  27 H27            2.1244    -2.5429     0.4815 H       
  28 H28            0.3447    -2.5637     0.4981 H       
  29 H29            0.3190    -2.3329    -1.9707 H       
  30 H30            2.0988    -2.3122    -1.9872 H       
  31 H31            1.2189    -4.3731    -3.4842 H       
  32 H32            1.2621    -6.7535    -1.8180 H       
  33 H33           -0.8776    -9.0011    -5.3826 H       
  34 H34           -0.8920    -9.8129    -7.7066 H       
  35 H35            3.3868    -8.9571    -5.4202 H       
  36 H36            3.3144     1.9547    -0.0194 H       
  37 H37            3.3387    -0.5065    -0.0325 H       
  38 H38            2.1619    -8.7936    -3.3316 H       
  39 H39            0.3822    -8.8144    -3.3151 H       
  40 H40            1.1638     3.8337     0.8944 H       
@<TRIPOS>BOND
   1    1    2 ar
   2    1   16 ar
   3    1   25 1
   4    2    3 ar
   5    2   26 1
   6    3    4 1
   7    3   18 ar
   8    4    5 1
   9    4   27 1
  10    4   28 1
  11    5    6 1
  12    5   29 1
  13    5   30 1
  14    6    7 am
  15    6   22 2
  16    7    8 1
  17    7   31 1
  18    8    9 am
  19    8   32 1
  20    9   19 1
  21    9   20 2
  22   10   11 ar
  23   10   15 ar
  24   10   33 1
  25   11   12 ar
  26   11   34 1
  27   12   13 ar
  28   12   21 1
  29   13   14 ar
  30   13   23 1
  31   14   15 ar
  32   14   35 1
  33   15   19 1
  34   16   17 ar
  35   16   24 1
  36   17   18 ar
  37   17   36 1
  38   18   37 1
  39   19   38 1
  40   19   39 1
  41   24   40 1

#	End of record

