#	Name: ASD02198679
#	Creating user name:	WinNT
#	Creation time:	15. 06. 2019 20:19

#	Modifying user name:	WinNT
#	Modification time:	15. 06. 2019 20:19

#	Program:	/corina/corina34_cracker 3.40 0067  02.08.2006

@<TRIPOS>MOLECULE
ASD02198679
  50   54    0    0    0
SMALL
NO_CHARGES


@<TRIPOS>ATOM
   1 F1             2.2533    -1.7072     2.4721 F       
   2 Cl2            1.3316     1.1801    -4.9327 Cl      
   3 C3            -0.0433     1.5017    -0.1149 C.2     
   4 C4            -0.0730     0.1622     0.0976 C.2     
   5 N5             1.0716    -0.5396     0.2604 N.pl3   
   6 N6             2.2361    -0.0049     0.2263 N.2     
   7 C7             2.4077     1.2843     0.0277 C.2     
   8 C8             1.2218     2.1357    -0.1604 C.2     
   9 C9             0.9801    -1.9173     0.4772 C.ar    
  10 C10            1.5815    -2.4865     1.5966 C.ar    
  11 C11            1.4916    -3.8473     1.8115 C.ar    
  12 C12            0.7983    -4.6500     0.9068 C.ar    
  13 C13            0.1972    -4.0765    -0.2134 C.ar    
  14 C14            0.2840    -2.7169    -0.4219 C.ar    
  15 C15            3.7647     1.8664    -0.0049 C.2     
  16 N16            4.3068     2.6061    -1.0182 N.pl3   
  17 N17            5.6089     2.9573    -0.6406 N.2     
  18 C18            5.8526     2.4578     0.5448 C.2     
  19 C19            4.7204     1.7710     0.9828 C.2     
  20 C20            3.6737     2.9511    -2.2190 C.ar    
  21 C21            3.8081     4.2341    -2.7326 C.ar    
  22 C22            3.1826     4.5720    -3.9171 C.ar    
  23 C23            2.4231     3.6344    -4.5917 C.ar    
  24 C24            2.2868     2.3543    -4.0827 C.ar    
  25 C25            2.9150     2.0090    -2.9011 C.ar    
  26 O26            1.3248     3.3387    -0.3483 O.2     
  27 C27            0.7007    -6.1119     1.1349 C.ar    
  28 N28            1.2754    -6.6512     2.2026 N.ar    
  29 C29            0.0013    -6.9073     0.2295 C.ar    
  30 C30           -0.0816    -8.2703     0.4561 C.ar    
  31 C31            0.5382    -8.7936     1.5818 C.ar    
  32 C32            1.2115    -7.9451     2.4416 C.ar    
  33 C33            7.1413     2.6059     1.3119 C.3     
  34 H34           -0.9546     2.0654    -0.2494 H       
  35 H35           -1.0228    -0.3503     0.1376 H       
  36 H36            1.9581    -4.2896     2.6793 H       
  37 H37           -0.3399    -4.6973    -0.9153 H       
  38 H38           -0.1821    -2.2734    -1.2894 H       
  39 H39            4.6144     1.2518     1.9239 H       
  40 H40            4.4009     4.9675    -2.2063 H       
  41 H41            3.2869     5.5700    -4.3164 H       
  42 H42            1.9349     3.9012    -5.5173 H       
  43 H43            2.8089     1.0102    -2.5042 H       
  44 H44           -0.4697    -6.4665    -0.6366 H       
  45 H45           -0.6171    -8.9121    -0.2278 H       
  46 H46            0.4917    -9.8529     1.7870 H       
  47 H47            1.6950    -8.3493     3.3187 H       
  48 H48            7.0938     3.5005     1.9328 H       
  49 H49            7.2895     1.7314     1.9454 H       
  50 H50            7.9726     2.6929     0.6124 H       
@<TRIPOS>BOND
   1    1   10 1
   2    2   24 1
   3    3    4 2
   4    3    8 1
   5    3   34 1
   6    4    5 1
   7    4   35 1
   8    5    6 1
   9    5    9 1
  10    6    7 2
  11    7    8 1
  12    7   15 1
  13    8   26 2
  14    9   10 ar
  15    9   14 ar
  16   10   11 ar
  17   11   12 ar
  18   11   36 1
  19   12   13 ar
  20   12   27 1
  21   13   14 ar
  22   13   37 1
  23   14   38 1
  24   15   16 1
  25   15   19 2
  26   16   17 1
  27   16   20 1
  28   17   18 2
  29   18   19 1
  30   18   33 1
  31   19   39 1
  32   20   21 ar
  33   20   25 ar
  34   21   22 ar
  35   21   40 1
  36   22   23 ar
  37   22   41 1
  38   23   24 ar
  39   23   42 1
  40   24   25 ar
  41   25   43 1
  42   27   28 ar
  43   27   29 ar
  44   28   32 ar
  45   29   30 ar
  46   29   44 1
  47   30   31 ar
  48   30   45 1
  49   31   32 ar
  50   31   46 1
  51   32   47 1
  52   33   48 1
  53   33   49 1
  54   33   50 1

#	End of record

