#	Name: ASD03730091
#	Creating user name:	WinNT
#	Creation time:	15. 06. 2019 20:43

#	Modifying user name:	WinNT
#	Modification time:	15. 06. 2019 20:43

#	Program:	/corina/corina34_cracker 3.40 0067  02.08.2006

@<TRIPOS>MOLECULE
ASD03730091
  57   61    0    0    0
SMALL
NO_CHARGES


@<TRIPOS>ATOM
   1 C1            -0.0184     1.5028     0.0103 C.2     
   2 C2             0.0021    -0.0041     0.0020 C.3     
   3 O3             1.0236     2.1234     0.0037 O.2     
   4 N4            -1.1946     2.1607     0.0195 N.am    
   5 C5            -2.4532     1.4111     0.0214 C.3     
   6 C6            -2.8846     1.1422     1.4645 C.3     
   7 C7            -4.1991     0.3593     1.4665 C.3     
   8 C8            -1.2145     3.6256     0.0275 C.3     
   9 C9            -1.2282     4.1433    -1.4121 C.3     
  10 C10           -1.2490     5.6732    -1.4037 C.3     
  11 O11            6.2459     2.8794     2.0976 O.3     
  12 C12            7.6663     2.8233     2.3260 C.3     
  13 O13            7.8789     1.4934     2.8350 O.3     
  14 C14            6.8679     0.7368     2.3152 C.ar    
  15 C15            5.8636     1.5896     1.8629 C.ar    
  16 C16            6.7212    -0.6329     2.1884 C.ar    
  17 C17            5.5735    -1.1688     1.6121 C.ar    
  18 C18            4.5736    -0.3071     1.1716 C.ar    
  19 C19            4.7194     1.0592     1.2910 C.ar    
  20 O20            5.2412    -2.4710     1.3795 O.3     
  21 C21            3.4673    -1.1739     0.6323 C.3     
  22 C22            3.8195    -2.5682     1.1684 C.3     
  23 N23            1.3897    -0.4735    -0.0138 N.am    
  24 C24            2.1130    -0.7212     1.0965 C.2     
  25 C25            3.4026    -1.1504    -0.8661 C.ar    
  26 C26            4.3041    -1.4527    -1.8622 C.ar    
  27 C27            3.9367    -1.3289    -3.1903 C.ar    
  28 C28            2.6624    -0.9003    -3.5148 C.ar    
  29 C29            1.7562    -0.5954    -2.5207 C.ar    
  30 C30            2.1172    -0.7175    -1.1811 C.ar    
  31 O31            1.7424    -0.6020     2.2452 O.2     
  32 H32           -0.4983    -0.3791     0.8948 H       
  33 H33           -0.5153    -0.3696    -0.8850 H       
  34 H34           -3.2232     1.9925    -0.4857 H       
  35 H35           -2.3124     0.4633    -0.4983 H       
  36 H36           -2.1146     0.5607     1.9715 H       
  37 H37           -3.0254     2.0900     1.9841 H       
  38 H38           -4.9691     0.9408     0.9594 H       
  39 H39           -4.0583    -0.5884     0.9468 H       
  40 H40           -4.5064     0.1678     2.4946 H       
  41 H41           -2.1068     3.9740     0.5475 H       
  42 H42           -0.3271     3.9982     0.5392 H       
  43 H43           -0.3358     3.7949    -1.9321 H       
  44 H44           -2.1156     3.7707    -1.9238 H       
  45 H45           -2.1414     6.0216    -0.8838 H       
  46 H46           -0.3616     6.0458    -0.8921 H       
  47 H47           -1.2588     6.0421    -2.4294 H       
  48 H48            8.2103     2.9676     1.3925 H       
  49 H49            7.9653     3.5680     3.0637 H       
  50 H50            7.5027    -1.2907     2.5390 H       
  51 H51            3.9391     1.7171     0.9379 H       
  52 H52            3.5894    -3.3363     0.4301 H       
  53 H53            3.3012    -2.7643     2.1070 H       
  54 H54            5.2987    -1.7870    -1.6065 H       
  55 H55            4.6432    -1.5667    -3.9717 H       
  56 H56            2.3756    -0.8035    -4.5515 H       
  57 H57            0.7631    -0.2608    -2.7820 H       
@<TRIPOS>BOND
   1    1    2 1
   2    1    3 2
   3    1    4 am
   4    2   23 1
   5    2   32 1
   6    2   33 1
   7    4    5 1
   8    4    8 1
   9    5    6 1
  10    5   34 1
  11    5   35 1
  12    6    7 1
  13    6   36 1
  14    6   37 1
  15    7   38 1
  16    7   39 1
  17    7   40 1
  18    8    9 1
  19    8   41 1
  20    8   42 1
  21    9   10 1
  22    9   43 1
  23    9   44 1
  24   10   45 1
  25   10   46 1
  26   10   47 1
  27   11   12 1
  28   11   15 1
  29   12   13 1
  30   12   48 1
  31   12   49 1
  32   13   14 1
  33   14   15 ar
  34   14   16 ar
  35   15   19 ar
  36   16   17 ar
  37   16   50 1
  38   17   18 ar
  39   17   20 1
  40   18   19 ar
  41   18   21 1
  42   19   51 1
  43   20   22 1
  44   21   22 1
  45   21   24 1
  46   21   25 1
  47   22   52 1
  48   22   53 1
  49   23   24 am
  50   23   30 1
  51   24   31 2
  52   25   26 ar
  53   25   30 ar
  54   26   27 ar
  55   26   54 1
  56   27   28 ar
  57   27   55 1
  58   28   29 ar
  59   28   56 1
  60   29   30 ar
  61   29   57 1

#	End of record

