#	Name: ASD05430715
#	Creating user name:	WinNT
#	Creation time:	15. 06. 2019 21:00

#	Modifying user name:	WinNT
#	Modification time:	15. 06. 2019 21:00

#	Program:	/corina/corina34_cracker 3.40 0067  02.08.2006

@<TRIPOS>MOLECULE
ASD05430715
  59   63    0    0    0
SMALL
NO_CHARGES


@<TRIPOS>ATOM
   1 C1            -0.2144     1.2161    -0.7979 C.2     
   2 C2            -0.3389    -0.1795    -0.8329 C.2     
   3 N3            -1.5126    -0.7758    -0.4105 N.pl3   
   4 C4            -2.3144     0.0064     0.4112 C.2     
   5 N5            -2.3739     1.3728     0.2318 N.am    
   6 C6            -1.3285     2.0434    -0.3239 C.2     
   7 O7            -1.3174     3.2570    -0.4188 O.2     
   8 C8            -3.5733     2.1079     0.6411 C.3     
   9 C9            -3.2198     3.0676     1.7790 C.3     
  10 C10           -4.1059     2.8922    -0.5303 C.ar    
  11 C11           -4.0937     2.3370    -1.7959 C.ar    
  12 C12           -4.5829     3.0568    -2.8730 C.ar    
  13 C13           -5.0842     4.3327    -2.6818 C.ar    
  14 C14           -5.0959     4.8878    -1.4138 C.ar    
  15 C15           -4.6114     4.1639    -0.3373 C.ar    
  16 N16            1.0111     1.5202    -1.2534 N.2     
  17 C17            1.6353     0.4153    -1.5628 C.2     
  18 N18            0.8215    -0.6575    -1.3133 N.pl3   
  19 F19           -5.5844     6.1332    -1.2258 F       
  20 F20           -4.5704     2.5140    -4.1102 F       
  21 N21           -3.0150    -0.5541     1.3569 N.2     
  22 C22           -2.8698    -1.9871     1.6248 C.3     
  23 C23           -1.8124    -2.4113     2.6459 C.3     
  24 C24           -3.2977    -2.4950     3.0031 C.3     
  25 C25           -1.8849    -2.1375    -0.8024 C.3     
  26 C26            4.2554    -2.1527    -3.6815 C.ar    
  27 C27            5.2412    -2.3965    -2.7363 C.ar    
  28 C28            4.8982    -2.5334    -1.3991 C.ar    
  29 C29            3.5764    -2.4263    -1.0119 C.ar    
  30 C30            2.5958    -2.1833    -1.9558 C.ar    
  31 C31            2.9351    -2.0469    -3.2893 C.ar    
  32 C32            1.1546    -2.0674    -1.5307 C.3     
  33 O33            6.5408    -2.5014    -3.1198 O.3     
  34 C34            7.5020    -2.7531    -2.0927 C.3     
  35 H35           -4.3322     1.4038     0.9822 H       
  36 H36           -2.4608     3.7716     1.4379 H       
  37 H37           -4.1121     3.6145     2.0835 H       
  38 H38           -2.8345     2.5003     2.6263 H       
  39 H39           -3.7022     1.3415    -1.9450 H       
  40 H40           -5.4656     4.8950    -3.5214 H       
  41 H41           -4.6207     4.5966     0.6522 H       
  42 H42            2.6398     0.3567    -1.9552 H       
  43 H43           -3.0376    -2.6442     0.7715 H       
  44 H44           -1.2848    -3.3477     2.4646 H       
  45 H45           -1.2247    -1.6242     3.1184 H       
  46 H46           -3.6873    -1.7630     3.7106 H       
  47 H47           -3.7473    -3.4865     3.0568 H       
  48 H48           -1.5622    -2.8382    -0.0324 H       
  49 H49           -2.9669    -2.1989    -0.9191 H       
  50 H50           -1.4027    -2.3883    -1.7472 H       
  51 H51            4.5205    -2.0414    -4.7226 H       
  52 H52            5.6637    -2.7235    -0.6615 H       
  53 H53            3.3088    -2.5328     0.0290 H       
  54 H54            2.1673    -1.8572    -4.0247 H       
  55 H55            1.0029    -2.6234    -0.6055 H       
  56 H56            0.5119    -2.4767    -2.3101 H       
  57 H57            7.4760    -1.9426    -1.3644 H       
  58 H58            7.2659    -3.6947    -1.5970 H       
  59 H59            8.4971    -2.8139    -2.5334 H       
@<TRIPOS>BOND
   1    1    2 2
   2    1   16 1
   3    1    6 1
   4    2    3 1
   5    2   18 1
   6    3    4 1
   7    3   25 1
   8    4    5 1
   9    4   21 2
  10    5    6 am
  11    5    8 1
  12    6    7 2
  13    8    9 1
  14    8   10 1
  15    8   35 1
  16    9   36 1
  17    9   37 1
  18    9   38 1
  19   10   11 ar
  20   10   15 ar
  21   11   12 ar
  22   11   39 1
  23   12   13 ar
  24   12   20 1
  25   13   14 ar
  26   13   40 1
  27   14   15 ar
  28   14   19 1
  29   15   41 1
  30   16   17 2
  31   17   18 1
  32   17   42 1
  33   18   32 1
  34   21   22 1
  35   22   23 1
  36   22   24 1
  37   22   43 1
  38   23   24 1
  39   23   44 1
  40   23   45 1
  41   24   46 1
  42   24   47 1
  43   25   48 1
  44   25   49 1
  45   25   50 1
  46   26   27 ar
  47   26   31 ar
  48   26   51 1
  49   27   28 ar
  50   27   33 1
  51   28   29 ar
  52   28   52 1
  53   29   30 ar
  54   29   53 1
  55   30   31 ar
  56   30   32 1
  57   31   54 1
  58   32   55 1
  59   32   56 1
  60   33   34 1
  61   34   57 1
  62   34   58 1
  63   34   59 1

#	End of record

