#	Name: ASD04590147
#	Creating user name:	WinNT
#	Creation time:	15. 06. 2019 20:50

#	Modifying user name:	WinNT
#	Modification time:	15. 06. 2019 20:50

#	Program:	/corina/corina34_cracker 3.40 0067  02.08.2006

@<TRIPOS>MOLECULE
ASD04590147
  45   48    0    0    0
SMALL
NO_CHARGES


@<TRIPOS>ATOM
   1 N1            -0.0153     1.2802     0.0091 N.pl3   
   2 N2             0.0021    -0.0041     0.0020 N.2     
   3 C3             1.2456    -0.4440    -0.0122 C.2     
   4 C4             2.0904     0.6961    -0.0142 C.2     
   5 C5             1.2525     1.7667    -0.0004 C.2     
   6 C6             1.6766    -1.8546    -0.0235 C.2     
   7 N7             0.7572    -2.8401    -0.0200 N.am    
   8 O8             2.8613    -2.1283    -0.0359 O.2     
   9 N9             3.4932     0.7146    -0.0271 N.am    
  10 C10            4.1517     1.8906    -0.0271 C.2     
  11 C11            5.6170     1.9099    -0.0405 C.2     
  12 C12            1.1853    -4.2411    -0.0312 C.3     
  13 C13            0.0896    -5.1159     0.5844 C.3     
  14 C14            0.5162    -6.5839     0.5145 C.3     
  15 N15            0.7413    -6.9634    -0.8861 N.3     
  16 C16            1.8218    -6.1691    -1.4844 C.3     
  17 C17            1.4341    -4.6887    -1.4743 C.3     
  18 C18            6.4694     0.7925    -0.0604 C.2     
  19 O19            3.5292     2.9367    -0.0159 O.2     
  20 C20            6.4415     3.0520    -0.0423 C.2     
  21 N21            7.7335     2.6092    -0.0573 N.pl3   
  22 N22            7.7086     1.2093    -0.0683 N.2     
  23 C23            6.1668     4.4257    -0.0324 C.2     
  24 C24            7.2034     5.3130    -0.0380 C.2     
  25 C25            8.5202     4.8331    -0.0535 C.2     
  26 C26            8.7617     3.5030    -0.0621 C.2     
  27 H27           -0.8184     1.8243     0.0160 H       
  28 H28            1.5407     2.8075     0.0021 H       
  29 H29           -0.1878    -2.6218    -0.0102 H       
  30 H30            3.9892    -0.1190    -0.0359 H       
  31 H31            2.1032    -4.3462     0.5472 H       
  32 H32           -0.0623    -4.8301     1.6252 H       
  33 H33           -0.8389    -4.9800     0.0299 H       
  34 H34            1.4374    -6.7217     1.0807 H       
  35 H35           -0.2680    -7.2106     0.9391 H       
  36 H36            0.9312    -7.9511    -0.9671 H       
  37 H37            2.7369    -6.3088    -0.9089 H       
  38 H38            1.9858    -6.4945    -2.5117 H       
  39 H39            0.5267    -4.5461    -2.0611 H       
  40 H40            2.2429    -4.0977    -1.9042 H       
  41 H41            6.1529    -0.2401    -0.0675 H       
  42 H42            5.1461     4.7784    -0.0209 H       
  43 H43            7.0109     6.3757    -0.0310 H       
  44 H44            9.3459     5.5292    -0.0584 H       
  45 H45            9.7806     3.1451    -0.0739 H       
@<TRIPOS>BOND
   1    1    2 1
   2    1    5 1
   3    1   27 1
   4    2    3 2
   5    3    4 1
   6    3    6 1
   7    4    5 2
   8    4    9 1
   9    5   28 1
  10    6    7 am
  11    6    8 2
  12    7   12 1
  13    7   29 1
  14    9   10 am
  15    9   30 1
  16   10   19 2
  17   10   11 1
  18   11   20 2
  19   11   18 1
  20   12   13 1
  21   12   17 1
  22   12   31 1
  23   13   14 1
  24   13   32 1
  25   13   33 1
  26   14   15 1
  27   14   34 1
  28   14   35 1
  29   15   16 1
  30   15   36 1
  31   16   17 1
  32   16   37 1
  33   16   38 1
  34   17   39 1
  35   17   40 1
  36   18   22 2
  37   18   41 1
  38   20   21 1
  39   20   23 1
  40   21   22 1
  41   21   26 1
  42   23   24 2
  43   23   42 1
  44   24   25 1
  45   24   43 1
  46   25   26 2
  47   25   44 1
  48   26   45 1

#	End of record

