#	Name: ASD05430072
#	Creating user name:	WinNT
#	Creation time:	15. 06. 2019 20:59

#	Modifying user name:	WinNT
#	Modification time:	15. 06. 2019 20:59

#	Program:	/corina/corina34_cracker 3.40 0067  02.08.2006

@<TRIPOS>MOLECULE
ASD05430072
  63   68    0    0    0
SMALL
NO_CHARGES


@<TRIPOS>ATOM
   1 C1             1.1646    -0.4946    -0.9325 C.ar    
   2 C2             0.0138    -0.0035    -0.3171 C.ar    
   3 C3             0.0567     1.1897     0.3923 C.ar    
   4 C4             1.2368     1.8945     0.4910 C.ar    
   5 C5             2.3953     1.4081    -0.1238 C.ar    
   6 C6             2.3520     0.2065    -0.8376 C.ar    
   7 C7             4.8671    -0.0037     0.2170 C.3     
   8 C8             4.8285     1.4999     0.0679 C.2     
   9 C9             3.6566     2.1594    -0.0200 C.2     
  10 C10            6.2164    -0.4432     0.7883 C.3     
  11 C11            6.8646     0.5962     1.7080 C.3     
  12 N12            7.0845     1.8301     0.9519 N.pl3   
  13 C13            6.1096     2.2210     0.0221 C.2     
  14 N14           -1.1900    -0.7160    -0.4150 N.pl3   
  15 C15           -2.0196    -1.0602     0.6204 C.2     
  16 C16           -3.0552    -1.7333     0.0834 C.2     
  17 N17           -2.8679    -1.8010    -1.2428 N.2     
  18 C18           -1.7570    -1.1901    -1.5544 C.2     
  19 C19           -4.2225    -2.3107     0.8417 C.3     
  20 C20            2.3362    -2.1092    -2.2265 C.3     
  21 O21            1.1200    -1.6658    -1.6213 O.3     
  22 C22            8.2636     2.6683     1.1619 C.3     
  23 C23            8.7533     3.1834    -0.1964 C.3     
  24 N24            7.6209     3.7277    -0.9495 N.pl3   
  25 N25            6.3502     3.1490    -0.8487 N.2     
  26 C26            7.9027     3.8354     2.0442 C.ar    
  27 C27            8.7842     4.2621     3.0200 C.ar    
  28 C28            6.6929     4.4822     1.8735 C.ar    
  29 C29            6.3613     5.5532     2.6815 C.ar    
  30 C30            7.2411     5.9781     3.6626 C.ar    
  31 C31            8.4545     5.3325     3.8295 C.ar    
  32 F32            6.9179     7.0250     4.4531 F       
  33 C33            6.1689    -1.8403     1.4155 C.3     
  34 S34            7.8916    -2.1184     0.9200 S.3     
  35 C35            7.1762    -0.9662    -0.2848 C.3     
  36 H36           -0.8370     1.5664     0.8674 H       
  37 H37            1.2671     2.8224     1.0427 H       
  38 H38            3.2441    -0.1727    -1.3138 H       
  39 H39            4.0698    -0.3205     0.8893 H       
  40 H40            4.7196    -0.4672    -0.7584 H       
  41 H41            3.6429     3.2393    -0.0142 H       
  42 H42            6.2052     0.7982     2.5520 H       
  43 H43            7.8193     0.2164     2.0719 H       
  44 H44           -1.8711    -0.8353     1.6663 H       
  45 H45           -1.3527    -1.0861    -2.5504 H       
  46 H46           -5.0169    -1.5672     0.9071 H       
  47 H47           -4.5932    -3.1936     0.3210 H       
  48 H48           -3.9018    -2.5889     1.8456 H       
  49 H49            2.1619    -3.0532    -2.7430 H       
  50 H50            2.6797    -1.3618    -2.9417 H       
  51 H51            3.0945    -2.2510    -1.4565 H       
  52 H52            9.0502     2.0802     1.6346 H       
  53 H53            9.4964     3.9656    -0.0418 H       
  54 H54            9.2010     2.3624    -0.7564 H       
  55 H55            7.7529     4.4979    -1.5242 H       
  56 H56            9.7307     3.7584     3.1500 H       
  57 H57            6.0068     4.1506     1.1082 H       
  58 H58            5.4164     6.0588     2.5475 H       
  59 H59            9.1414     5.6629     4.5947 H       
  60 H60            6.0320    -1.8201     2.4967 H       
  61 H61            5.4667    -2.5095     0.9182 H       
  62 H62            6.6667    -1.4681    -1.1073 H       
  63 H63            7.8843    -0.2129    -0.6300 H       
@<TRIPOS>BOND
   1    1    2 ar
   2    1    6 ar
   3    1   21 1
   4    2    3 ar
   5    2   14 1
   6    3    4 ar
   7    3   36 1
   8    4    5 ar
   9    4   37 1
  10    5    6 ar
  11    5    9 1
  12    6   38 1
  13    7    8 1
  14    7   10 1
  15    7   39 1
  16    7   40 1
  17    8    9 2
  18    8   13 1
  19    9   41 1
  20   10   11 1
  21   10   33 1
  22   10   35 1
  23   11   12 1
  24   11   42 1
  25   11   43 1
  26   12   13 1
  27   12   22 1
  28   13   25 2
  29   14   15 1
  30   14   18 1
  31   15   16 2
  32   15   44 1
  33   16   17 1
  34   16   19 1
  35   17   18 2
  36   18   45 1
  37   19   46 1
  38   19   47 1
  39   19   48 1
  40   20   21 1
  41   20   49 1
  42   20   50 1
  43   20   51 1
  44   22   23 1
  45   22   26 1
  46   22   52 1
  47   23   24 1
  48   23   53 1
  49   23   54 1
  50   24   25 1
  51   24   55 1
  52   26   27 ar
  53   26   28 ar
  54   27   31 ar
  55   27   56 1
  56   28   29 ar
  57   28   57 1
  58   29   30 ar
  59   29   58 1
  60   30   31 ar
  61   30   32 1
  62   31   59 1
  63   33   34 1
  64   33   60 1
  65   33   61 1
  66   34   35 1
  67   35   62 1
  68   35   63 1

#	End of record

