#	Name: ASD01813969
#	Creating user name:	WinNT
#	Creation time:	15. 06. 2019 19:31

#	Modifying user name:	WinNT
#	Modification time:	15. 06. 2019 19:31

#	Program:	/corina/corina34_cracker 3.40 0067  02.08.2006

@<TRIPOS>MOLECULE
ASD01813969
  36   39    0    0    0
SMALL
NO_CHARGES


@<TRIPOS>ATOM
   1 N1            -0.0160     1.3253     0.0093 N.ar    
   2 C2             0.0021    -0.0041     0.0020 C.ar    
   3 C3             1.2375    -0.6893    -0.0135 C.ar    
   4 C4             2.4284     0.0373    -0.0229 C.ar    
   5 C5             2.3437     1.4182    -0.0166 C.ar    
   6 C6             1.0973     2.0272     0.0025 C.ar    
   7 C7             1.2182    -2.1583    -0.0201 C.2     
   8 N8            -1.1442    -0.7282     0.0101 N.2     
   9 C9            -1.1315    -2.0269     0.0039 C.2     
  10 N10            0.0076    -2.7644    -0.0109 N.am    
  11 C11           -0.0733    -4.2272    -0.0174 C.3     
  12 C12           -1.2892    -4.9026     2.0630 C.ar    
  13 C13           -0.0867    -4.7359     1.4011 C.ar    
  14 C14            1.1036    -5.0353     2.0380 C.ar    
  15 C15           -1.3047    -5.3691     3.3630 C.ar    
  16 C16           -0.1113    -5.6710     4.0049 C.ar    
  17 C17            1.0946    -5.5025     3.3377 C.ar    
  18 N18           -0.1237    -6.1446     5.3243 N.pl3   
  19 O19            2.2495    -2.8047    -0.0338 O.2     
  20 C20            0.9610    -6.4693     6.0635 C.2     
  21 C21            0.5244    -6.8815     7.2762 C.2     
  22 C22           -0.8728    -6.8067     7.2793 C.2     
  23 N23           -1.2617    -6.3596     6.1124 N.2     
  24 H24            3.3859    -0.4622    -0.0344 H       
  25 H25            3.2418     2.0180    -0.0232 H       
  26 H26            1.0391     3.1056     0.0088 H       
  27 H27           -2.0776    -2.5476     0.0109 H       
  28 H28           -0.9872    -4.5383    -0.5236 H       
  29 H29            0.7900    -4.6365    -0.5420 H       
  30 H30           -2.2170    -4.6634     1.5647 H       
  31 H31            2.0413    -4.9040     1.5184 H       
  32 H32           -2.2442    -5.4988     3.8796 H       
  33 H33            2.0245    -5.7369     3.8344 H       
  34 H34            1.9908    -6.4106     5.7435 H       
  35 H35            1.1448    -7.2105     8.0967 H       
  36 H36           -1.5189    -7.0687     8.1041 H       
@<TRIPOS>BOND
   1    1    2 ar
   2    1    6 ar
   3    2    3 ar
   4    2    8 1
   5    3    4 ar
   6    3    7 1
   7    4    5 ar
   8    4   24 1
   9    5    6 ar
  10    5   25 1
  11    6   26 1
  12    7   10 am
  13    7   19 2
  14    8    9 2
  15    9   10 1
  16    9   27 1
  17   10   11 1
  18   11   13 1
  19   11   28 1
  20   11   29 1
  21   12   15 ar
  22   12   13 ar
  23   12   30 1
  24   13   14 ar
  25   14   17 ar
  26   14   31 1
  27   15   16 ar
  28   15   32 1
  29   16   17 ar
  30   16   18 1
  31   17   33 1
  32   18   23 1
  33   18   20 1
  34   20   21 2
  35   20   34 1
  36   21   22 1
  37   21   35 1
  38   22   23 2
  39   22   36 1

#	End of record

