#	Name: ASD01910541
#	Creating user name:	WinNT
#	Creation time:	15. 06. 2019 19:56

#	Modifying user name:	WinNT
#	Modification time:	15. 06. 2019 19:56

#	Program:	/corina/corina34_cracker 3.40 0067  02.08.2006

@<TRIPOS>MOLECULE
ASD01910541
  41   44    0    0    0
SMALL
NO_CHARGES


@<TRIPOS>ATOM
   1 O1             0.1415     0.6208    -0.2512 O.3     
   2 C2             0.2996    -0.7131    -0.2106 C.2     
   3 N3             1.6045    -0.9373    -0.1568 N.2     
   4 C4             2.1775     0.2752    -0.1672 C.2     
   5 N5             1.2269     1.1613    -0.2253 N.2     
   6 C6            -0.7653    -1.7243    -0.2231 C.2     
   7 C7            -2.1197    -1.4788    -0.2794 C.2     
   8 C8            -2.7650    -2.7222    -0.2703 C.2     
   9 C9            -1.8130    -3.6828    -0.2100 C.2     
  10 N10           -0.5910    -3.0876    -0.1868 N.pl3   
  11 C11            3.9768     1.3978     1.1217 C.3     
  12 C12            3.6566     0.5599    -0.1202 C.3     
  13 C13            4.0676     1.3355    -1.3738 C.3     
  14 C14            5.5753     1.5966    -1.3428 C.3     
  15 C15            5.9172     2.4462    -0.1148 C.3     
  16 N16            5.3961     1.7756     1.0842 N.am    
  17 C17            6.2049     1.5118     2.1295 C.2     
  18 C18            5.6418     0.9561     3.3772 C.ar    
  19 O19            7.3977     1.7310     2.0457 O.2     
  20 C20            4.4268     1.4349     3.8849 C.ar    
  21 C21            3.9419     0.8822     5.0550 C.ar    
  22 C22            4.6668    -0.1195     5.6836 C.ar    
  23 N23            5.8106    -0.5505     5.1808 N.ar    
  24 C24            6.3086    -0.0580     4.0658 C.ar    
  25 F25            4.1966    -0.6627     6.8278 F       
  26 Cl26          -4.4802    -2.9845    -0.3259 Cl      
  27 H27           -2.5948    -0.5099    -0.3218 H       
  28 H28           -1.9944    -4.7472    -0.1883 H       
  29 H29            0.2618    -3.5480    -0.1449 H       
  30 H30            3.3595     2.2961     1.1255 H       
  31 H31            3.7783     0.8117     2.0190 H       
  32 H32            4.2073    -0.3798    -0.0769 H       
  33 H33            3.8183     0.7519    -2.2600 H       
  34 H34            3.5350     2.2861    -1.4036 H       
  35 H35            6.1079     0.6472    -1.2881 H       
  36 H36            5.8710     2.1286    -2.2471 H       
  37 H37            6.9990     2.5519    -0.0333 H       
  38 H38            5.4581     3.4301    -0.2119 H       
  39 H39            3.8832     2.2164     3.3748 H       
  40 H40            3.0088     1.2268     5.4757 H       
  41 H41            7.2462    -0.4361     3.6857 H       
@<TRIPOS>BOND
   1    1    2 1
   2    1    5 1
   3    2    3 2
   4    2    6 1
   5    3    4 1
   6    4    5 2
   7    4   12 1
   8    6    7 2
   9    6   10 1
  10    7    8 1
  11    7   27 1
  12    8    9 2
  13    8   26 1
  14    9   10 1
  15    9   28 1
  16   10   29 1
  17   11   12 1
  18   11   16 1
  19   11   30 1
  20   11   31 1
  21   12   13 1
  22   12   32 1
  23   13   14 1
  24   13   33 1
  25   13   34 1
  26   14   15 1
  27   14   35 1
  28   14   36 1
  29   15   16 1
  30   15   37 1
  31   15   38 1
  32   16   17 am
  33   17   18 1
  34   17   19 2
  35   18   20 ar
  36   18   24 ar
  37   20   21 ar
  38   20   39 1
  39   21   22 ar
  40   21   40 1
  41   22   23 ar
  42   22   25 1
  43   23   24 ar
  44   24   41 1

#	End of record

