#	Name: ASD01890174
#	Creating user name:	WinNT
#	Creation time:	15. 06. 2019 19:50

#	Modifying user name:	WinNT
#	Modification time:	15. 06. 2019 19:50

#	Program:	/corina/corina34_cracker 3.40 0067  02.08.2006

@<TRIPOS>MOLECULE
ASD01890174
  33   34    0    0    0
SMALL
NO_CHARGES


@<TRIPOS>ATOM
   1 C1             0.0021    -0.0041     0.0020 C.1     
   2 C2            -0.0173     1.4278     0.0099 C.2     
   3 C3             1.1410     2.1177     0.0025 C.2     
   4 C4             2.4561     1.3821    -0.0140 C.3     
   5 C5             2.9488     1.2505    -1.4565 C.3     
   6 N6             0.0175    -1.1399    -0.0042 N.1     
   7 C7             1.1210     3.5897     0.0106 C.ar    
   8 C8             0.6111     4.2795     1.1149 C.ar    
   9 C9             0.5958     5.6583     1.1150 C.ar    
  10 C10            1.0833     6.3594     0.0258 C.ar    
  11 C11            1.5892     5.6838    -1.0711 C.ar    
  12 C12            1.6171     4.3052    -1.0835 C.ar    
  13 C13            4.2640     0.5149    -1.4730 C.ar    
  14 C14            4.2836    -0.8628    -1.5849 C.ar    
  15 C15            5.4895    -1.5381    -1.6001 C.ar    
  16 C16            6.6770    -0.8349    -1.5033 C.ar    
  17 C17            6.6567     0.5439    -1.3913 C.ar    
  18 C18            5.4504     1.2185    -1.3819 C.ar    
  19 Cl19           8.1920    -1.6824    -1.5217 Cl      
  20 H20           -0.9599     1.9550     0.0172 H       
  21 H21            3.1898     1.9362     0.5715 H       
  22 H22            2.3226     0.3895     0.4163 H       
  23 H23            2.2152     0.6964    -2.0419 H       
  24 H24            3.0823     2.2431    -1.8868 H       
  25 H25            0.2299     3.7337     1.9654 H       
  26 H26            0.2019     6.1925     1.9670 H       
  27 H27            1.0687     7.4393     0.0318 H       
  28 H28            1.9676     6.2378    -1.9174 H       
  29 H29            2.0169     3.7794    -1.9380 H       
  30 H30            3.3565    -1.4117    -1.6602 H       
  31 H31            5.5047    -2.6145    -1.6872 H       
  32 H32            7.5834     1.0934    -1.3156 H       
  33 H33            5.4346     2.2952    -1.2989 H       
@<TRIPOS>BOND
   1    1    2 1
   2    1    6 3
   3    2    3 2
   4    2   20 1
   5    3    4 1
   6    3    7 1
   7    4    5 1
   8    4   21 1
   9    4   22 1
  10    5   13 1
  11    5   23 1
  12    5   24 1
  13    7    8 ar
  14    7   12 ar
  15    8    9 ar
  16    8   25 1
  17    9   10 ar
  18    9   26 1
  19   10   11 ar
  20   10   27 1
  21   11   12 ar
  22   11   28 1
  23   12   29 1
  24   13   14 ar
  25   13   18 ar
  26   14   15 ar
  27   14   30 1
  28   15   16 ar
  29   15   31 1
  30   16   17 ar
  31   16   19 1
  32   17   18 ar
  33   17   32 1
  34   18   33 1

#	End of record

