#	Name: ASD07030059
#	Creating user name:	WinNT
#	Creation time:	15. 06. 2019 21:08

#	Modifying user name:	WinNT
#	Modification time:	15. 06. 2019 21:08

#	Program:	/corina/corina34_cracker 3.40 0067  02.08.2006

@<TRIPOS>MOLECULE
ASD07030059
  58   59    0    0    0
SMALL
NO_CHARGES


@<TRIPOS>ATOM
   1 C1            -0.0187     1.5258     0.0104 C.3     
   2 C2             0.0021    -0.0041     0.0020 C.3     
   3 C3             1.3165     0.7789    -0.0063 C.3     
   4 N4            -0.4313     2.2053    -1.2248 N.3     
   5 C5            -0.9675     3.5422    -0.9364 C.3     
   6 C6            -1.3855     4.2172    -2.2442 C.3     
   7 N7            -1.9217     5.5540    -1.9557 N.3     
   8 C8            -2.1127     6.3232    -3.1933 C.3     
   9 C9            -2.7451     7.6759    -2.8576 C.3     
  10 N10           -1.8767     8.4004    -1.9193 N.3     
  11 C11           -1.6857     7.6313    -0.6818 C.3     
  12 C12           -1.0532     6.2786    -1.0174 C.3     
  13 C13           -2.4129     9.7373    -1.6308 C.3     
  14 C14           -1.0762    -2.0129     3.6188 C.ar    
  15 C15           -1.8102    -2.2278     2.4541 C.ar    
  16 C16           -1.4574    -1.5770     1.2892 C.ar    
  17 C17           -0.3780    -0.7121     1.2769 C.ar    
  18 C18            0.3541    -0.4951     2.4302 C.ar    
  19 C19            0.0105    -1.1409     3.6005 C.ar    
  20 C20           -1.4545    -2.7050     4.8758 C.ar    
  21 C21           -0.7204    -2.4901     6.0404 C.ar    
  22 C22           -1.0771    -3.1370     7.2074 C.ar    
  23 C23           -2.1617    -3.9976     7.2206 C.ar    
  24 C24           -2.8926    -4.2141     6.0670 C.ar    
  25 C25           -2.5483    -3.5677     4.8968 C.ar    
  26 Cl26          -0.1638    -2.8713     8.6597 Cl      
  27 H27           -0.3072     2.0201     0.9381 H       
  28 H28           -0.2904    -0.5063    -0.9201 H       
  29 H29            1.8888     0.7918    -0.9339 H       
  30 H30            1.9064     0.7818     0.9103 H       
  31 H31            0.3326     2.2562    -1.8820 H       
  32 H32           -1.8336     3.4526    -0.2807 H       
  33 H33           -0.2014     4.1429    -0.4462 H       
  34 H34           -0.5194     4.3068    -2.8999 H       
  35 H35           -2.1516     3.6164    -2.7344 H       
  36 H36           -1.1480     6.4824    -3.6751 H       
  37 H37           -2.7691     5.7719    -3.8665 H       
  38 H38           -2.8611     8.2597    -3.7707 H       
  39 H39           -3.7219     7.5172    -2.4006 H       
  40 H40           -1.0293     8.1826    -0.0086 H       
  41 H41           -2.6504     7.4721    -0.2000 H       
  42 H42           -0.9373     5.6947    -0.1043 H       
  43 H43           -0.0765     6.4372    -1.4745 H       
  44 H44           -3.4044     9.6433    -1.1879 H       
  45 H45           -1.7510    10.2517    -0.9341 H       
  46 H46           -2.4811    10.3089    -2.5564 H       
  47 H47           -2.6531    -2.9029     2.4627 H       
  48 H48           -2.0254    -1.7431     0.3858 H       
  49 H49            1.1964     0.1807     2.4148 H       
  50 H50            0.5830    -0.9710     4.5004 H       
  51 H51            0.1259    -1.8192     6.0305 H       
  52 H52           -2.4375    -4.5017     8.1350 H       
  53 H53           -3.7375    -4.8866     6.0826 H       
  54 H54           -3.1231    -3.7342     3.9977 H       
  55 Cl55           6.9064    15.3089    13.6597 Cl      
  56 H56            6.9064    16.6789    13.6597 H       
  57 Cl57          11.9064    21.6789    18.6597 Cl      
  58 H58           11.9064    23.0489    18.6597 H       
@<TRIPOS>BOND
   1    1    2 1
   2    1    3 1
   3    1    4 1
   4    1   27 1
   5    2    3 1
   6    2   17 1
   7    2   28 1
   8    3   29 1
   9    3   30 1
  10    4    5 1
  11    4   31 1
  12    5    6 1
  13    5   32 1
  14    5   33 1
  15    6    7 1
  16    6   34 1
  17    6   35 1
  18    7    8 1
  19    7   12 1
  20    8    9 1
  21    8   36 1
  22    8   37 1
  23    9   10 1
  24    9   38 1
  25    9   39 1
  26   10   11 1
  27   10   13 1
  28   11   12 1
  29   11   40 1
  30   11   41 1
  31   12   42 1
  32   12   43 1
  33   13   44 1
  34   13   45 1
  35   13   46 1
  36   14   15 ar
  37   14   19 ar
  38   14   20 1
  39   15   16 ar
  40   15   47 1
  41   16   17 ar
  42   16   48 1
  43   17   18 ar
  44   18   19 ar
  45   18   49 1
  46   19   50 1
  47   20   21 ar
  48   20   25 ar
  49   21   22 ar
  50   21   51 1
  51   22   23 ar
  52   22   26 1
  53   23   24 ar
  54   23   52 1
  55   24   25 ar
  56   24   53 1
  57   25   54 1
  58   55   56 1
  59   57   58 1

#	End of record

