#	Name: ASD01820047
#	Creating user name:	WinNT
#	Creation time:	15. 06. 2019 19:36

#	Modifying user name:	WinNT
#	Modification time:	15. 06. 2019 19:36

#	Program:	/corina/corina34_cracker 3.40 0067  02.08.2006

@<TRIPOS>MOLECULE
ASD01820047
 102  105    0    0    0
SMALL
NO_CHARGES


@<TRIPOS>ATOM
   1 N1            -1.7813    -3.2975     1.5037 N.am    
   2 C2            -1.7956    -4.5664     2.2357 C.3     
   3 C3            -0.8682    -5.5660     1.5417 C.3     
   4 C4            -0.7614    -6.8357     2.3887 C.3     
   5 N5             0.3793    -6.7174     3.3067 N.4     
   6 C6             0.3948    -7.8685     4.2193 C.3     
   7 C7             1.5829    -7.7454     5.1754 C.3     
   8 C8             1.5990    -8.9442     6.1259 C.3     
   9 C9             2.7871    -8.8211     7.0820 C.3     
  10 C10            2.8032   -10.0199     8.0325 C.3     
  11 C11            3.9913    -9.8968     8.9886 C.3     
  12 C12            1.6285    -6.6881     2.5342 C.3     
  13 C13            0.2554    -5.4775     4.0846 C.3     
  14 N14            4.0068   -11.0478     9.9012 N.4     
  15 C15            5.1475   -10.9296    10.8192 C.3     
  16 C16            5.2235   -12.1772    11.7015 C.3     
  17 C17            6.0240   -13.2637    10.9807 C.3     
  18 N18            5.9889   -14.4992    11.7672 N.am    
  19 C19            2.7576   -11.0772    10.6736 C.3     
  20 C20            4.1307   -12.2878     9.1233 C.3     
  21 C21            5.0546   -15.4583    11.6368 C.2     
  22 C22            5.3545   -16.5416    12.5967 C.ar    
  23 C23            6.5184   -16.1385    13.2818 C.ar    
  24 C24            6.8898   -14.8265    12.7110 C.2     
  25 C25            4.7568   -17.7526    12.9070 C.ar    
  26 C26            5.3087   -18.5594    13.8897 C.ar    
  27 C27            6.4502   -18.1641    14.5616 C.ar    
  28 C28            7.0589   -16.9554    14.2619 C.ar    
  29 O29            7.8441   -14.1531    13.0440 O.2     
  30 O30            4.1211   -15.4375    10.8603 O.2     
  31 C31           -2.6442    -2.9743     0.5237 C.2     
  32 C32           -2.3129    -1.6202     0.0320 C.ar    
  33 C33           -1.2069    -1.1931     0.7942 C.ar    
  34 C34           -0.9071    -2.2997     1.7272 C.2     
  35 C35           -2.8421    -0.7876    -0.9410 C.ar    
  36 C36           -2.2793     0.4605    -1.1577 C.ar    
  37 C37           -1.1946     0.8794    -0.4103 C.ar    
  38 C38           -0.6547     0.0572     0.5664 C.ar    
  39 O39           -3.5447    -3.6774     0.1117 O.2     
  40 O40           -0.0157    -2.3096     2.5519 O.2     
  41 C41           -1.4358    -5.9175     0.1650 C.3     
  42 C42            5.9129   -11.8270    13.0217 C.3     
  43 C43           -2.7831    -6.6226     0.3338 C.3     
  44 C44            5.0151   -10.8910    13.8333 C.3     
  45 C45           -3.2948    -7.0789    -1.0340 C.3     
  46 C46            5.7426   -10.4672    15.1108 C.3     
  47 H47           -1.4522    -4.4007     3.2569 H       
  48 H48           -2.8103    -4.9641     2.2536 H       
  49 H49            0.1209    -5.1231     1.4246 H       
  50 H50           -1.6782    -6.9672     2.9634 H       
  51 H51           -0.6150    -7.6964     1.7362 H       
  52 H52           -0.5321    -7.8903     4.7924 H       
  53 H53            0.4867    -8.7886     3.6421 H       
  54 H54            2.5098    -7.7236     4.6022 H       
  55 H55            1.4909    -6.8253     5.7526 H       
  56 H56            0.6721    -8.9660     6.6990 H       
  57 H57            1.6909    -9.8643     5.5487 H       
  58 H58            3.7140    -8.7993     6.5088 H       
  59 H59            2.6951    -7.9010     7.6592 H       
  60 H60            1.8763   -10.0417     8.6056 H       
  61 H61            2.8952   -10.9400     7.4553 H       
  62 H62            4.9182    -9.8750     8.4154 H       
  63 H63            3.8993    -8.9767     9.5658 H       
  64 H64            2.1726    -5.7706     2.7581 H       
  65 H65            2.2415    -7.5487     2.8021 H       
  66 H66            1.3981    -6.7234     1.4694 H       
  67 H67           -0.6715    -5.4992     4.6577 H       
  68 H68            1.1018    -5.3897     4.7657 H       
  69 H69            0.2439    -4.6234     3.4074 H       
  70 H70            6.0685   -10.8348    10.2439 H       
  71 H71            5.0188   -10.0479    11.4469 H       
  72 H72            4.2161   -12.5416    11.9031 H       
  73 H73            5.5873   -13.4456     9.9987 H       
  74 H74            7.0572   -12.9366    10.8639 H       
  75 H75            1.9143   -11.2101     9.9958 H       
  76 H76            2.7880   -11.9047    11.3824 H       
  77 H77            2.6435   -10.1385    11.2157 H       
  78 H78            5.0980   -12.3066     8.6211 H       
  79 H79            4.0515   -13.1453     9.7915 H       
  80 H80            3.3346   -12.3316     8.3801 H       
  81 H81            3.8646   -18.0663    12.3855 H       
  82 H82            4.8433   -19.5033    14.1325 H       
  83 H83            6.8707   -18.8015    15.3254 H       
  84 H84            7.9506   -16.6516    14.7901 H       
  85 H85           -3.6893    -1.1098    -1.5282 H       
  86 H86           -2.6909     1.1099    -1.9161 H       
  87 H87           -0.7649     1.8540    -0.5885 H       
  88 H88            0.1928     0.3897     1.1474 H       
  89 H89           -1.5735    -5.0050    -0.4150 H       
  90 H90           -0.7427    -6.5781    -0.3559 H       
  91 H91            6.0946   -12.7393    13.5899 H       
  92 H92            6.8620   -11.3321    12.8159 H       
  93 H93           -2.6608    -7.4892     0.9836 H       
  94 H94           -3.5007    -5.9333     0.7788 H       
  95 H95            4.7797   -10.0079    13.2393 H       
  96 H96            4.0926   -11.4091    14.0953 H       
  97 H97           -4.2547    -7.5813    -0.9137 H       
  98 H98           -3.4172    -6.2123    -1.6837 H       
  99 H99           -2.5772    -7.7682    -1.4789 H       
 100 H100           6.6651    -9.9491    14.8488 H       
 101 H101           5.1029    -9.8004    15.6890 H       
 102 H102           5.9780   -11.3503    15.7048 H       
@<TRIPOS>BOND
   1    1    2 1
   2    1   31 am
   3    1   34 am
   4    2    3 1
   5    2   47 1
   6    2   48 1
   7    3    4 1
   8    3   41 1
   9    3   49 1
  10    4    5 1
  11    4   50 1
  12    4   51 1
  13    5    6 1
  14    5   12 1
  15    5   13 1
  16    6    7 1
  17    6   52 1
  18    6   53 1
  19    7    8 1
  20    7   54 1
  21    7   55 1
  22    8    9 1
  23    8   56 1
  24    8   57 1
  25    9   10 1
  26    9   58 1
  27    9   59 1
  28   10   11 1
  29   10   60 1
  30   10   61 1
  31   11   14 1
  32   11   62 1
  33   11   63 1
  34   12   64 1
  35   12   65 1
  36   12   66 1
  37   13   67 1
  38   13   68 1
  39   13   69 1
  40   14   15 1
  41   14   19 1
  42   14   20 1
  43   15   16 1
  44   15   70 1
  45   15   71 1
  46   16   17 1
  47   16   42 1
  48   16   72 1
  49   17   18 1
  50   17   73 1
  51   17   74 1
  52   18   21 am
  53   18   24 am
  54   19   75 1
  55   19   76 1
  56   19   77 1
  57   20   78 1
  58   20   79 1
  59   20   80 1
  60   21   22 1
  61   21   30 2
  62   22   23 ar
  63   22   25 ar
  64   23   24 1
  65   23   28 ar
  66   24   29 2
  67   25   26 ar
  68   25   81 1
  69   26   27 ar
  70   26   82 1
  71   27   28 ar
  72   27   83 1
  73   28   84 1
  74   31   32 1
  75   31   39 2
  76   32   33 ar
  77   32   35 ar
  78   33   34 1
  79   33   38 ar
  80   34   40 2
  81   35   36 ar
  82   35   85 1
  83   36   37 ar
  84   36   86 1
  85   37   38 ar
  86   37   87 1
  87   38   88 1
  88   41   43 1
  89   41   89 1
  90   41   90 1
  91   42   44 1
  92   42   91 1
  93   42   92 1
  94   43   45 1
  95   43   93 1
  96   43   94 1
  97   44   46 1
  98   44   95 1
  99   44   96 1
 100   45   97 1
 101   45   98 1
 102   45   99 1
 103   46  100 1
 104   46  101 1
 105   46  102 1

#	End of record

