#	Name: ASD05430220
#	Creating user name:	WinNT
#	Creation time:	15. 06. 2019 21:00

#	Modifying user name:	WinNT
#	Modification time:	15. 06. 2019 21:00

#	Program:	/corina/corina34_cracker 3.40 0067  02.08.2006

@<TRIPOS>MOLECULE
ASD05430220
  61   68    0    0    0
SMALL
NO_CHARGES


@<TRIPOS>ATOM
   1 C1             0.1750     1.1804    -1.0231 C.ar    
   2 C2             0.0200    -0.0139    -0.3172 C.ar    
   3 C3             1.0497    -0.4947     0.4815 C.ar    
   4 C4             2.2307     0.2059     0.5809 C.ar    
   5 C5             2.3920     1.4018    -0.1237 C.ar    
   6 C6             1.3492     1.8849    -0.9300 C.ar    
   7 C7             4.9035    -0.0010    -0.0978 C.3     
   8 C8             4.8238     1.4962     0.0675 C.2     
   9 C9             3.6531     2.1541    -0.0203 C.2     
  10 C10            6.1730    -0.4179    -0.8213 C.3     
  11 C11            7.4769     0.2011    -0.3453 C.3     
  12 N12            7.3167     1.5830     0.0763 N.pl3   
  13 C13            6.0914     2.2049     0.3305 C.2     
  14 N14           -1.1790    -0.7301    -0.4143 N.pl3   
  15 C15           -1.4792    -1.8907     0.2014 C.2     
  16 N16           -2.3110    -0.3790    -1.1679 N.2     
  17 C17           -3.1996    -1.3186    -0.9754 C.2     
  18 N18           -2.6935    -2.2315    -0.1468 N.2     
  19 C19           -4.5757    -1.3603    -1.5882 C.3     
  20 C20            8.3329     2.6084     0.2877 C.3     
  21 O21            7.6538     3.6449     1.0064 O.3     
  22 N22            6.2667     3.3850     0.8264 N.2     
  23 C23            9.5194     2.0952     1.0341 C.ar    
  24 C24           10.6542     2.2904     0.2394 C.ar    
  25 N25           10.3374     2.8865    -0.9698 N.pl3   
  26 C26            8.8882     3.1323    -1.0415 C.3     
  27 C27            9.5967     1.5150     2.2874 C.ar    
  28 C28           10.8542     1.1292     2.7336 C.ar    
  29 C29           11.9821     1.3174     1.9577 C.ar    
  30 C30           11.9146     1.8978     0.6991 C.ar    
  31 F31           13.1827     0.9253     2.4372 F       
  32 C32            6.2759    -1.9478    -1.0003 C.3     
  33 O33            6.6812    -1.6514    -2.3513 O.3     
  34 C34            6.0212    -0.3703    -2.3567 C.3     
  35 C35            0.8646     2.9630    -1.8623 C.3     
  36 C36           -0.4364     2.1797    -1.9692 C.3     
  37 H37            0.9236    -1.4191     1.0254 H       
  38 H38            3.0309    -0.1680     1.2025 H       
  39 H39            4.8849    -0.4690     0.8865 H       
  40 H40            4.0402    -0.3423    -0.6689 H       
  41 H41            3.6387     3.2340    -0.0149 H       
  42 H42            7.8580    -0.3814     0.4936 H       
  43 H43            8.2027     0.1622    -1.1575 H       
  44 H44           -0.8308    -2.4430     0.8655 H       
  45 H45           -4.5335    -1.8890    -2.5406 H       
  46 H46           -5.2578    -1.8791    -0.9147 H       
  47 H47           -4.9312    -0.3432    -1.7528 H       
  48 H48           10.9756     3.1094    -1.6655 H       
  49 H49            8.4516     2.5847    -1.8768 H       
  50 H50            8.6891     4.1993    -1.1412 H       
  51 H51            8.7154     1.3683     2.8943 H       
  52 H52           10.9527     0.6729     3.7075 H       
  53 H53           12.8009     2.0412     0.0988 H       
  54 H54            7.0571    -2.4105    -0.3973 H       
  55 H55            5.3189    -2.4650    -0.9308 H       
  56 H56            4.9870    -0.4089    -2.6987 H       
  57 H57            6.5999     0.4215    -2.8324 H       
  58 H58            0.7532     3.9360    -1.3840 H       
  59 H59            1.4198     3.0119    -2.7990 H       
  60 H60           -0.6254     1.7814    -2.9661 H       
  61 H61           -1.2965     2.7030    -1.5515 H       
@<TRIPOS>BOND
   1    1    2 ar
   2    1    6 ar
   3    1   36 1
   4    2    3 ar
   5    2   14 1
   6    3    4 ar
   7    3   37 1
   8    4    5 ar
   9    4   38 1
  10    5    6 ar
  11    5    9 1
  12    6   35 1
  13    7    8 1
  14    7   10 1
  15    7   39 1
  16    7   40 1
  17    8    9 2
  18    8   13 1
  19    9   41 1
  20   10   11 1
  21   10   32 1
  22   10   34 1
  23   11   12 1
  24   11   42 1
  25   11   43 1
  26   12   13 1
  27   12   20 1
  28   13   22 2
  29   14   15 1
  30   14   16 1
  31   15   18 2
  32   15   44 1
  33   16   17 2
  34   17   18 1
  35   17   19 1
  36   19   45 1
  37   19   46 1
  38   19   47 1
  39   20   21 1
  40   20   23 1
  41   20   26 1
  42   21   22 1
  43   23   24 ar
  44   23   27 ar
  45   24   25 1
  46   24   30 ar
  47   25   26 1
  48   25   48 1
  49   26   49 1
  50   26   50 1
  51   27   28 ar
  52   27   51 1
  53   28   29 ar
  54   28   52 1
  55   29   30 ar
  56   29   31 1
  57   30   53 1
  58   32   33 1
  59   32   54 1
  60   32   55 1
  61   33   34 1
  62   34   56 1
  63   34   57 1
  64   35   36 1
  65   35   58 1
  66   35   59 1
  67   36   60 1
  68   36   61 1

#	End of record

