#	Name: ASD03081171
#	Creating user name:	WinNT
#	Creation time:	15. 06. 2019 20:27

#	Modifying user name:	WinNT
#	Modification time:	15. 06. 2019 20:27

#	Program:	/corina/corina34_cracker 3.40 0067  02.08.2006

@<TRIPOS>MOLECULE
ASD03081171
  60   62    0    0    0
SMALL
NO_CHARGES


@<TRIPOS>ATOM
   1 C1             0.4211     1.5272    -0.1756 C.3     
   2 C2             0.6084     0.0086    -0.2492 C.3     
   3 N3             1.4996    -0.3042    -1.3746 N.am    
   4 C4             2.8077     0.3611    -1.4455 C.3     
   5 C5             2.5958     1.8757    -1.3590 C.3     
   6 C6             1.7917     2.2036    -0.0988 C.3     
   7 C7             1.6067     3.7192     0.0061 C.3     
   8 C8             0.7747     4.0435     1.2508 C.3     
   9 N9             1.4175     3.4318     2.4219 N.am    
  10 C10            1.7224     1.9949     2.3896 C.3     
  11 C11            2.5438     1.6931     1.1323 C.3     
  12 C12            1.1245    -1.1847    -2.3235 C.2     
  13 O13            0.0401    -1.7285    -2.2533 O.2     
  14 O14            1.9513    -1.4619    -3.3493 O.3     
  15 C15            1.7211     4.1743     3.5049 C.2     
  16 C16            2.2472     3.5239     4.7226 C.ar    
  17 C17            3.2951     4.1123     5.4337 C.ar    
  18 C18            3.7831     3.4985     6.5727 C.ar    
  19 C19            3.2308     2.2978     7.0073 C.ar    
  20 C20            2.1915     1.7138     6.3025 C.ar    
  21 C21            1.6943     2.3222     5.1689 C.ar    
  22 O22            1.5621     5.3793     3.4798 O.2     
  23 O23            4.8033     4.0683     7.2678 O.3     
  24 C24            5.3227     5.3007     6.7642 C.3     
  25 F25            3.7099     1.6997     8.1199 F       
  26 C26            1.4817    -2.4198    -4.3343 C.3     
  27 C27            0.1918    -1.9025    -4.9742 C.3     
  28 C28            2.5487    -2.6046    -5.4151 C.3     
  29 C29            1.2098    -3.7617    -3.6514 C.3     
  30 H30           -0.1055     1.8723    -1.0654 H       
  31 H31           -0.1593     1.7796     0.7119 H       
  32 H32            1.0527    -0.3501     0.6793 H       
  33 H33           -0.3578    -0.4716    -0.4038 H       
  34 H34            3.4309     0.0312    -0.6142 H       
  35 H35            3.2931     0.1133    -2.3895 H       
  36 H36            3.5630     2.3764    -1.3139 H       
  37 H37            2.0495     2.2173    -2.2382 H       
  38 H38            2.5817     4.2001     0.0848 H       
  39 H39            1.0908     4.0850    -0.8817 H       
  40 H40            0.7237     5.1241     1.3848 H       
  41 H41           -0.2310     3.6399     1.1335 H       
  42 H42            2.2969     1.7233     3.2753 H       
  43 H43            0.7938     1.4247     2.3650 H       
  44 H44            2.6948     0.6171     1.0460 H       
  45 H45            3.5104     2.1921     1.2008 H       
  46 H46            3.7235     5.0440     5.0949 H       
  47 H47            1.7662     0.7816     6.6441 H       
  48 H48            0.8808     1.8665     4.6239 H       
  49 H49            5.7051     5.1484     5.7549 H       
  50 H50            4.5293     6.0478     6.7434 H       
  51 H51            6.1299     5.6458     7.4104 H       
  52 H52            0.3855    -0.9466    -5.4607 H       
  53 H53           -0.1607    -2.6217    -5.7135 H       
  54 H54           -0.5684    -1.7709    -4.2041 H       
  55 H55            3.4677    -2.9731    -4.9593 H       
  56 H56            2.1962    -3.3237    -6.1545 H       
  57 H57            2.7424    -1.6486    -5.9017 H       
  58 H58            0.4496    -3.6300    -2.8814 H       
  59 H59            0.8572    -4.4808    -4.3908 H       
  60 H60            2.1288    -4.1302    -3.1955 H       
@<TRIPOS>BOND
   1    1    2 1
   2    1    6 1
   3    1   30 1
   4    1   31 1
   5    2    3 1
   6    2   32 1
   7    2   33 1
   8    3    4 1
   9    3   12 am
  10    4    5 1
  11    4   34 1
  12    4   35 1
  13    5    6 1
  14    5   36 1
  15    5   37 1
  16    6    7 1
  17    6   11 1
  18    7    8 1
  19    7   38 1
  20    7   39 1
  21    8    9 1
  22    8   40 1
  23    8   41 1
  24    9   10 1
  25    9   15 am
  26   10   11 1
  27   10   42 1
  28   10   43 1
  29   11   44 1
  30   11   45 1
  31   12   13 2
  32   12   14 1
  33   14   26 1
  34   15   16 1
  35   15   22 2
  36   16   17 ar
  37   16   21 ar
  38   17   18 ar
  39   17   46 1
  40   18   19 ar
  41   18   23 1
  42   19   20 ar
  43   19   25 1
  44   20   21 ar
  45   20   47 1
  46   21   48 1
  47   23   24 1
  48   24   49 1
  49   24   50 1
  50   24   51 1
  51   26   27 1
  52   26   29 1
  53   26   28 1
  54   27   52 1
  55   27   53 1
  56   27   54 1
  57   28   55 1
  58   28   56 1
  59   28   57 1
  60   29   58 1
  61   29   59 1
  62   29   60 1

#	End of record

