#	Name: ASD01816705
#	Creating user name:	WinNT
#	Creation time:	15. 06. 2019 19:35

#	Modifying user name:	WinNT
#	Modification time:	15. 06. 2019 19:35

#	Program:	/corina/corina34_cracker 3.40 0067  02.08.2006

@<TRIPOS>MOLECULE
ASD01816705
  65   69    0    0    0
SMALL
NO_CHARGES


@<TRIPOS>ATOM
   1 C1            -0.0167     1.3960     0.0122 C.2     
   2 C2             0.0025    -0.0052    -0.0044 C.2     
   3 C3             1.1989    -0.6602    -0.0252 C.2     
   4 C4             2.3922     0.0815    -0.0295 C.2     
   5 N5             2.3439     1.4491    -0.0125 N.am    
   6 C6             1.1420     2.0927     0.0077 C.2     
   7 C7             3.6230    -0.5887    -0.0506 C.2     
   8 C8             4.7879     0.1231    -0.0550 C.2     
   9 C9             4.7340     1.5284    -0.0381 C.2     
  10 C10            3.4813     2.1731    -0.0166 C.2     
  11 C11            3.6605    -2.0951    -0.0681 C.3     
  12 O12            3.4256     3.3913    -0.0019 O.2     
  13 C13            5.9710     2.3159    -0.0418 C.2     
  14 N14            7.1647     1.6963     0.0459 N.am    
  15 O15            5.9198     3.5292    -0.1240 O.2     
  16 N16            3.7781    -2.5660    -1.4546 N.3     
  17 C17            4.0549    -4.0074    -1.4991 C.3     
  18 C18            4.3146    -4.4338    -2.9458 C.3     
  19 C19            3.0860    -4.1045    -3.7982 C.3     
  20 C20            2.7905    -2.6056    -3.6959 C.3     
  21 C21            2.5749    -2.2322    -2.2275 C.3     
  22 C22            3.3583    -4.4672    -5.2353 C.ar    
  23 N23            4.5963    -4.6987    -5.6257 N.ar    
  24 C24            1.9276    -4.8689    -3.3076 C.1     
  25 N25            1.0337    -5.4588    -2.9290 N.1     
  26 C26            4.8818    -5.0190    -6.8728 C.ar    
  27 C27            3.8831    -5.1235    -7.8221 C.ar    
  28 C28            2.5686    -4.8873    -7.4489 C.ar    
  29 C29            2.3067    -4.5589    -6.1278 C.ar    
  30 C30            8.4025     2.4710    -0.0711 C.3     
  31 C31            9.5361     1.7364     0.6501 C.3     
  32 C32           10.8389     2.5195     0.4727 C.3     
  33 N33           11.1451     2.6450    -0.9580 N.3     
  34 C34           10.0932     3.3885    -1.6630 C.3     
  35 C35            8.7680     2.6314    -1.5494 C.3     
  36 H36           -0.9604     1.9212     0.0242 H       
  37 H37           -0.9228    -0.5622    -0.0005 H       
  38 H38            1.2286    -1.7397    -0.0378 H       
  39 H39            1.1153     3.1723     0.0209 H       
  40 H40            5.7398    -0.3870    -0.0709 H       
  41 H41            4.5175    -2.4439     0.5080 H       
  42 H42            2.7433    -2.4865     0.3720 H       
  43 H43            7.2041     0.7373     0.1865 H       
  44 H44            4.9332    -4.2275    -0.8924 H       
  45 H45            3.1970    -4.5542    -1.1077 H       
  46 H46            5.1808    -3.8976    -3.3333 H       
  47 H47            4.5046    -5.5066    -2.9804 H       
  48 H48            3.6327    -2.0406    -4.0953 H       
  49 H49            1.8916    -2.3722    -4.2665 H       
  50 H50            1.7240    -2.7873    -1.8327 H       
  51 H51            2.3784    -1.1629    -2.1498 H       
  52 H52            5.9081    -5.2015    -7.1554 H       
  53 H53            4.1234    -5.3856    -8.8419 H       
  54 H54            1.7675    -4.9613    -8.1694 H       
  55 H55            1.2948    -4.3687    -5.8019 H       
  56 H56            8.2611     3.4537     0.3788 H       
  57 H57            9.3009     1.6569     1.7114 H       
  58 H58            9.6506     0.7387     0.2264 H       
  59 H59           10.7282     3.5123     0.9089 H       
  60 H60           11.6508     1.9917     0.9730 H       
  61 H61           12.0474     3.0744    -1.0983 H       
  62 H62            9.9859     4.3772    -1.2168 H       
  63 H63           10.3635     3.4918    -2.7138 H       
  64 H64            8.8705     1.6477    -2.0076 H       
  65 H65            7.9841     3.1912    -2.0594 H       
@<TRIPOS>BOND
   1    1    2 1
   2    1    6 2
   3    1   36 1
   4    2    3 2
   5    2   37 1
   6    3    4 1
   7    3   38 1
   8    4    5 1
   9    4    7 2
  10    5    6 1
  11    5   10 am
  12    6   39 1
  13    7    8 1
  14    7   11 1
  15    8    9 2
  16    8   40 1
  17    9   10 1
  18    9   13 1
  19   10   12 2
  20   11   16 1
  21   11   41 1
  22   11   42 1
  23   13   14 am
  24   13   15 2
  25   14   30 1
  26   14   43 1
  27   16   17 1
  28   16   21 1
  29   17   18 1
  30   17   44 1
  31   17   45 1
  32   18   19 1
  33   18   46 1
  34   18   47 1
  35   19   20 1
  36   19   22 1
  37   19   24 1
  38   20   21 1
  39   20   48 1
  40   20   49 1
  41   21   50 1
  42   21   51 1
  43   22   23 ar
  44   22   29 ar
  45   23   26 ar
  46   24   25 3
  47   26   27 ar
  48   26   52 1
  49   27   28 ar
  50   27   53 1
  51   28   29 ar
  52   28   54 1
  53   29   55 1
  54   30   31 1
  55   30   35 1
  56   30   56 1
  57   31   32 1
  58   31   57 1
  59   31   58 1
  60   32   33 1
  61   32   59 1
  62   32   60 1
  63   33   34 1
  64   33   61 1
  65   34   35 1
  66   34   62 1
  67   34   63 1
  68   35   64 1
  69   35   65 1

#	End of record

