#	Name: ASD00061009
#	Creating user name:	WinNT
#	Creation time:	15. 06. 2019 18:29

#	Modifying user name:	WinNT
#	Modification time:	15. 06. 2019 18:29

#	Program:	/corina/corina34_cracker 3.40 0067  02.08.2006

@<TRIPOS>MOLECULE
ASD00061009
  45   47    0    0    0
SMALL
NO_CHARGES


@<TRIPOS>ATOM
   1 C1            -0.0167     1.3829     0.0096 C.ar    
   2 C2             0.0021    -0.0041     0.0020 C.ar    
   3 N3            -1.2094    -0.7085     0.0333 N.am    
   4 C4            -2.1318    -0.3697     0.9530 C.2     
   5 C5            -1.8178     0.6730     1.9890 C.3     
   6 C6            -1.9630     2.0763     1.4001 C.3     
   7 C7            -1.3324     2.1136     0.0066 C.3     
   8 C8             1.1718     2.0868     0.0021 C.ar    
   9 C9             2.3763     1.4078    -0.0237 C.ar    
  10 C10            2.3963     0.0251    -0.0421 C.ar    
  11 C11            1.2106    -0.6844    -0.0288 C.ar    
  12 O12           -3.2192    -0.9069     0.9455 O.2     
  13 O13           -2.7313     0.5264     3.1081 O.3     
  14 C14           -2.3479    -0.2914     4.1075 C.2     
  15 C15           -1.4669    -1.7928    -0.9175 C.3     
  16 C16           -3.2266    -0.4889     5.2785 C.ar    
  17 C17           -2.8323    -1.3359     6.3162 C.ar    
  18 C18           -3.6574    -1.5155     7.4069 C.ar    
  19 C19           -4.8736    -0.8590     7.4739 C.ar    
  20 C20           -5.2705    -0.0183     6.4491 C.ar    
  21 C21           -4.4526     0.1749     5.3553 C.ar    
  22 O22           -1.2797    -0.8663     4.0459 O.2     
  23 C23           -0.9894    -3.0973    -0.3332 C.2     
  24 O24           -0.4857    -3.1190     0.7648 O.2     
  25 O25           -1.1236    -4.2350    -1.0326 O.3     
  26 C26           -0.6415    -5.4538    -0.4077 C.3     
  27 H27           -0.7952     0.5345     2.3400 H       
  28 H28           -3.0200     2.3321     1.3274 H       
  29 H29           -1.4589     2.7952     2.0460 H       
  30 H30           -1.1689     3.1502    -0.2880 H       
  31 H31           -2.0062     1.6399    -0.7074 H       
  32 H32            1.1604     3.1666     0.0159 H       
  33 H33            3.3048     1.9594    -0.0298 H       
  34 H34            3.3394    -0.5006    -0.0666 H       
  35 H35            1.2247    -1.7642    -0.0430 H       
  36 H36           -2.5366    -1.8543    -1.1176 H       
  37 H37           -0.9341    -1.5946    -1.8476 H       
  38 H38           -1.8836    -1.8494     6.2648 H       
  39 H39           -3.3537    -2.1703     8.2103 H       
  40 H40           -5.5161    -1.0037     8.3298 H       
  41 H41           -6.2211     0.4911     6.5077 H       
  42 H42           -4.7634     0.8316     4.5562 H       
  43 H43            0.4250    -5.3598    -0.2031 H       
  44 H44           -1.1775    -5.6195     0.5269 H       
  45 H45           -0.8101    -6.2969    -1.0776 H       
@<TRIPOS>BOND
   1    1    2 ar
   2    1    8 ar
   3    1    7 1
   4    2    3 1
   5    2   11 ar
   6    3    4 am
   7    3   15 1
   8    4    5 1
   9    4   12 2
  10    5    6 1
  11    5   13 1
  12    5   27 1
  13    6    7 1
  14    6   28 1
  15    6   29 1
  16    7   30 1
  17    7   31 1
  18    8    9 ar
  19    8   32 1
  20    9   10 ar
  21    9   33 1
  22   10   11 ar
  23   10   34 1
  24   11   35 1
  25   13   14 1
  26   14   16 1
  27   14   22 2
  28   15   23 1
  29   15   36 1
  30   15   37 1
  31   16   17 ar
  32   16   21 ar
  33   17   18 ar
  34   17   38 1
  35   18   19 ar
  36   18   39 1
  37   19   20 ar
  38   19   40 1
  39   20   21 ar
  40   20   41 1
  41   21   42 1
  42   23   24 2
  43   23   25 1
  44   25   26 1
  45   26   43 1
  46   26   44 1
  47   26   45 1

#	End of record

