#	Name: ASD01870309
#	Creating user name:	WinNT
#	Creation time:	15. 06. 2019 19:39

#	Modifying user name:	WinNT
#	Modification time:	15. 06. 2019 19:39

#	Program:	/corina/corina34_cracker 3.40 0067  02.08.2006

@<TRIPOS>MOLECULE
ASD01870309
  47   49    0    0    0
SMALL
NO_CHARGES


@<TRIPOS>ATOM
   1 N1            -0.3977     0.6998    -0.5486 N.2     
   2 C2            -0.5231    -0.6190    -0.6885 C.2     
   3 C3             0.5941    -1.3306    -0.4462 C.2     
   4 S4             1.8803    -0.2079    -0.0107 S.3     
   5 C5             0.7685     1.1443    -0.2000 C.2     
   6 N6             1.0914     2.4805    -0.0057 N.am    
   7 C7             2.3426     2.8254     0.3577 C.2     
   8 C8             2.7136     4.2507     0.4659 C.ar    
   9 O9             3.1657     1.9631     0.5965 O.2     
  10 C10            1.7764     5.1874     0.9075 C.ar    
  11 C11            4.0048     4.6660     0.1324 C.ar    
  12 C12            4.3459     5.9975     0.2357 C.ar    
  13 C13            3.4100     6.9239     0.6701 C.ar    
  14 C14            2.1282     6.5163     1.0070 C.ar    
  15 F15            3.7498     8.2276     0.7699 F       
  16 C16           -1.8001    -1.2569    -1.0820 C.ar    
  17 C17           -2.9341    -0.4818    -1.3238 C.ar    
  18 C18           -4.1095    -1.1316    -1.6914 C.ar    
  19 N19           -4.1083    -2.4587    -1.7980 N.ar    
  20 C20           -3.0159    -3.1567    -1.5612 C.ar    
  21 N21           -1.8826    -2.5823    -1.2162 N.ar    
  22 N22           -5.2644    -0.4071    -1.9424 N.pl3   
  23 C23            0.0722     3.5155    -0.1957 C.3     
  24 C24           -5.2032     1.0521    -2.0575 C.3     
  25 C25           -5.8166     1.4847    -3.3907 C.3     
  26 C26           -5.9853     1.6877    -0.9062 C.3     
  27 C27           -6.5460    -1.1007    -2.0927 C.3     
  28 H28            0.6859    -2.4049    -0.5081 H       
  29 H29            0.7778     4.8710     1.1702 H       
  30 H30            4.7347     3.9452    -0.2054 H       
  31 H31            5.3440     6.3198    -0.0219 H       
  32 H32            1.4043     7.2414     1.3483 H       
  33 H33           -2.9015     0.5934    -1.2280 H       
  34 H34           -3.0503    -4.2319    -1.6570 H       
  35 H35           -0.4297     3.7096     0.7522 H       
  36 H36            0.5458     4.4311    -0.5501 H       
  37 H37           -0.6578     3.1761    -0.9306 H       
  38 H38           -4.1637     1.3768    -2.0134 H       
  39 H39           -6.8562     1.1600    -3.4348 H       
  40 H40           -5.7711     2.5704    -3.4763 H       
  41 H41           -5.2594     1.0320    -4.2109 H       
  42 H42           -5.5483     1.3794     0.0436 H       
  43 H43           -5.9398     2.7733    -0.9918 H       
  44 H44           -7.0249     1.3630    -0.9503 H       
  45 H45           -7.0292    -1.1861    -1.1194 H       
  46 H46           -7.1879    -0.5356    -2.7686 H       
  47 H47           -6.3746    -2.0963    -2.5019 H       
@<TRIPOS>BOND
   1    1    2 1
   2    1    5 2
   3    2    3 2
   4    2   16 1
   5    3    4 1
   6    3   28 1
   7    4    5 1
   8    5    6 1
   9    6    7 am
  10    6   23 1
  11    7    8 1
  12    7    9 2
  13    8   11 ar
  14    8   10 ar
  15   10   14 ar
  16   10   29 1
  17   11   12 ar
  18   11   30 1
  19   12   13 ar
  20   12   31 1
  21   13   14 ar
  22   13   15 1
  23   14   32 1
  24   16   17 ar
  25   16   21 ar
  26   17   18 ar
  27   17   33 1
  28   18   19 ar
  29   18   22 1
  30   19   20 ar
  31   20   21 ar
  32   20   34 1
  33   22   24 1
  34   22   27 1
  35   23   35 1
  36   23   36 1
  37   23   37 1
  38   24   25 1
  39   24   26 1
  40   24   38 1
  41   25   39 1
  42   25   40 1
  43   25   41 1
  44   26   42 1
  45   26   43 1
  46   26   44 1
  47   27   45 1
  48   27   46 1
  49   27   47 1

#	End of record

