#	Name: ASD01811390
#	Creating user name:	WinNT
#	Creation time:	15. 06. 2019 19:26

#	Modifying user name:	WinNT
#	Modification time:	15. 06. 2019 19:26

#	Program:	/corina/corina34_cracker 3.40 0067  02.08.2006

@<TRIPOS>MOLECULE
ASD01811390
  15   15    0    0    0
SMALL
NO_CHARGES


@<TRIPOS>ATOM
   1 C1            -0.0168     1.3901     0.0097 C.ar    
   2 C2             0.0021    -0.0041     0.0020 C.ar    
   3 C3             1.2217    -0.6607    -0.0131 C.ar    
   4 C4             2.3820     0.0982    -0.0201 C.ar    
   5 C5             2.2900     1.4811    -0.0118 C.ar    
   6 N6             1.1177     2.0804     0.0026 N.ar    
   7 C7            -1.2698     2.0833     0.0194 C.1     
   8 N8            -2.2638     2.6332     0.0270 N.1     
   9 C9             3.7306    -0.5742    -0.0361 C.3     
  10 Br10           3.8693     2.5211    -0.0213 Br      
  11 H11           -0.9213    -0.5642     0.0082 H       
  12 H12            1.2677    -1.7397    -0.0190 H       
  13 H13            4.0462    -0.7311    -1.0675 H       
  14 H14            4.4577     0.0575     0.4742 H       
  15 H15            3.6634    -1.5354     0.4736 H       
@<TRIPOS>BOND
   1    1    2 ar
   2    1    6 ar
   3    1    7 1
   4    2    3 ar
   5    2   11 1
   6    3    4 ar
   7    3   12 1
   8    4    5 ar
   9    4    9 1
  10    5    6 ar
  11    5   10 1
  12    7    8 3
  13    9   13 1
  14    9   14 1
  15    9   15 1

#	End of record

