#	Name: ASD03092433
#	Creating user name:	WinNT
#	Creation time:	15. 06. 2019 20:32

#	Modifying user name:	WinNT
#	Modification time:	15. 06. 2019 20:32

#	Program:	/corina/corina34_cracker 3.40 0067  02.08.2006

@<TRIPOS>MOLECULE
ASD03092433
  71   74    0    0    0
SMALL
NO_CHARGES


@<TRIPOS>ATOM
   1 N1            -0.3524     1.3920    -0.6642 N.pl3   
   2 N2            -0.2991     0.1127    -0.7699 N.2     
   3 C3             0.9480    -0.2989    -0.6582 C.2     
   4 C4             1.7469     0.8526    -0.4628 C.2     
   5 C5             0.8855     1.8967    -0.4734 C.2     
   6 C6             1.4216    -1.6965    -0.7240 C.2     
   7 O7             2.6061    -1.9432    -0.6049 O.2     
   8 N8             0.5406    -2.6982    -0.9161 N.am    
   9 C9             1.2416     3.3512    -0.3043 C.3     
  10 C10            1.0103    -4.0843    -0.9814 C.3     
  11 S11           -2.1018    -6.5950    -0.8851 S.3     
  12 C12           -1.6691    -6.0702    -2.4534 C.2     
  13 N13           -0.6540    -5.2616    -2.3940 N.2     
  14 C14           -0.1640    -5.0028    -1.2011 C.2     
  15 C15           -0.8021    -5.6295    -0.1905 C.2     
  16 C16           -0.0353    -6.5255     3.3751 C.ar    
  17 C17           -0.3476    -6.6704     2.0408 C.ar    
  18 C18           -0.4700    -5.5243     1.2437 C.ar    
  19 C19           -0.2678    -4.2756     1.8466 C.ar    
  20 C20            0.0410    -4.2241     3.1886 C.ar    
  21 N21            0.1471    -5.3292     3.9030 N.ar    
  22 C22            0.2610    -2.8879     3.8498 C.3     
  23 C23            0.0932    -7.7492     4.2453 C.3     
  24 N24           -2.3080    -6.4523    -3.6190 N.3     
  25 C25           -3.4166    -7.3748    -3.3340 C.3     
  26 C26           -4.0563    -7.8180    -4.6525 C.3     
  27 O27           -4.4857    -6.6639    -5.3798 O.3     
  28 C28           -3.4310    -5.7441    -5.6750 C.3     
  29 C29           -2.7850    -5.2799    -4.3669 C.3     
  30 C30           -4.0008    -4.5355    -6.4204 C.3     
  31 C31           -5.2609    -8.7148    -4.3598 C.3     
  32 C32           -1.5789     2.1891    -0.7453 C.3     
  33 C33           -2.7910     1.2566    -0.7910 C.3     
  34 C34           -1.6795     3.0965     0.4824 C.3     
  35 C35           -1.5470     3.0465    -2.0120 C.3     
  36 H36            2.8183     0.8904    -0.3323 H       
  37 H37           -0.4044    -2.5013    -1.0111 H       
  38 H38            1.1517     3.6275     0.7462 H       
  39 H39            2.2666     3.5153    -0.6367 H       
  40 H40            0.5641     3.9628    -0.9002 H       
  41 H41            1.7143    -4.1909    -1.8067 H       
  42 H42            1.5052    -4.3447    -0.0458 H       
  43 H43           -0.4951    -7.6522     1.6156 H       
  44 H44           -0.3523    -3.3674     1.2682 H       
  45 H45           -0.6866    -2.5139     4.2374 H       
  46 H46            0.9700    -3.0007     4.6700 H       
  47 H47            0.6589    -2.1826     3.1201 H       
  48 H48            1.1247    -8.1012     4.2271 H       
  49 H49           -0.1872    -7.4985     5.2683 H       
  50 H50           -0.5648    -8.5328     3.8698 H       
  51 H51           -3.0366    -8.2473    -2.8025 H       
  52 H52           -4.1618    -6.8695    -2.7197 H       
  53 H53           -3.3259    -8.3700    -5.2440 H       
  54 H54           -2.6825    -6.2358    -6.2962 H       
  55 H55           -3.5201    -4.7412    -3.7690 H       
  56 H56           -1.9440    -4.6232    -4.5893 H       
  57 H57           -4.7478    -4.0436    -5.7974 H       
  58 H58           -3.1966    -3.8349    -6.6450 H       
  59 H59           -4.4640    -4.8671    -7.3497 H       
  60 H60           -5.9913    -8.1610    -3.7700 H       
  61 H61           -5.7159    -9.0299    -5.2988 H       
  62 H62           -4.9336    -9.5922    -3.8021 H       
  63 H63           -2.8137     0.6457     0.1114 H       
  64 H64           -3.7036     1.8496    -0.8514 H       
  65 H65           -2.7193     0.6101    -1.6657 H       
  66 H66           -0.8159     3.7608     0.5150 H       
  67 H67           -2.5920     3.6896     0.4221 H       
  68 H68           -1.7022     2.4856     1.3849 H       
  69 H69           -1.5465     2.3992    -2.8890 H       
  70 H70           -2.4256     3.6911    -2.0367 H       
  71 H71           -0.6461     3.6601    -2.0129 H       
@<TRIPOS>BOND
   1    1    2 1
   2    1    5 1
   3    1   32 1
   4    2    3 2
   5    3    4 1
   6    3    6 1
   7    4    5 2
   8    4   36 1
   9    5    9 1
  10    6    7 2
  11    6    8 am
  12    8   10 1
  13    8   37 1
  14    9   38 1
  15    9   39 1
  16    9   40 1
  17   10   14 1
  18   10   41 1
  19   10   42 1
  20   11   12 1
  21   11   15 1
  22   12   13 2
  23   12   24 1
  24   13   14 1
  25   14   15 2
  26   15   18 1
  27   16   17 ar
  28   16   21 ar
  29   16   23 1
  30   17   18 ar
  31   17   43 1
  32   18   19 ar
  33   19   20 ar
  34   19   44 1
  35   20   21 ar
  36   20   22 1
  37   22   45 1
  38   22   46 1
  39   22   47 1
  40   23   48 1
  41   23   49 1
  42   23   50 1
  43   24   25 1
  44   24   29 1
  45   25   26 1
  46   25   51 1
  47   25   52 1
  48   26   27 1
  49   26   31 1
  50   26   53 1
  51   27   28 1
  52   28   29 1
  53   28   30 1
  54   28   54 1
  55   29   55 1
  56   29   56 1
  57   30   57 1
  58   30   58 1
  59   30   59 1
  60   31   60 1
  61   31   61 1
  62   31   62 1
  63   32   33 1
  64   32   34 1
  65   32   35 1
  66   33   63 1
  67   33   64 1
  68   33   65 1
  69   34   66 1
  70   34   67 1
  71   34   68 1
  72   35   69 1
  73   35   70 1
  74   35   71 1

#	End of record

