#	Name: ASD02508427
#	Creating user name:	WinNT
#	Creation time:	15. 06. 2019 20:24

#	Modifying user name:	WinNT
#	Modification time:	15. 06. 2019 20:24

#	Program:	/corina/corina34_cracker 3.40 0067  02.08.2006

@<TRIPOS>MOLECULE
ASD02508427
  42   44    0    0    0
SMALL
NO_CHARGES


@<TRIPOS>ATOM
   1 N1            -0.2086     1.6911     0.2999 N.2     
   2 C2            -0.1702     0.3575     0.4401 C.2     
   3 C3             1.1183    -0.0316     0.4130 C.2     
   4 N4             1.8724     1.1028     0.2520 N.pl3   
   5 C5             1.0078     2.1495     0.1864 C.2     
   6 C6             3.2670     1.1698     0.1711 C.ar    
   7 C7             3.9609     2.0719     0.9702 C.ar    
   8 N8             3.9143     0.3707    -0.6609 N.ar    
   9 C9             5.2287     0.4008    -0.7681 C.ar    
  10 C10            5.9817     1.2751    -0.0092 C.ar    
  11 C11            5.3419     2.1273     0.8801 C.ar    
  12 S12            1.7204    -1.6812     0.5569 S.o2    
  13 O13            1.6678    -2.2427    -0.7474 O.2     
  14 O14            2.9145    -1.6071     1.3236 O.2     
  15 N15            0.6280    -2.5236     1.4730 N.am    
  16 C16            0.3806    -2.1401     2.7931 C.ar    
  17 C17           -0.9238    -2.0750     3.2663 C.ar    
  18 C18           -1.1649    -1.6959     4.5722 C.ar    
  19 C19           -0.1095    -1.3812     5.4085 C.ar    
  20 C20            1.1903    -1.4450     4.9407 C.ar    
  21 C21            1.4387    -1.8285     3.6374 C.ar    
  22 Cl22           3.1078     3.1146     2.0651 Cl      
  23 C23           -2.5797    -1.6245     5.0863 C.3     
  24 C24            2.3373    -1.1012     5.8557 C.3     
  25 C25            7.4828     1.2993    -0.1407 C.3     
  26 F26            7.8831     0.3516    -1.0888 F       
  27 F27            7.8945     2.5719    -0.5508 F       
  28 F28            8.0642     0.9968     1.0953 F       
  29 H29           -1.0255    -0.2919     0.5551 H       
  30 H30            1.2817     3.1866     0.0607 H       
  31 H31            5.7226    -0.2672    -1.4582 H       
  32 H32            5.9076     2.8203     1.4852 H       
  33 H33            0.1599    -3.2834     1.0929 H       
  34 H34           -1.7486    -2.3203     2.6135 H       
  35 H35           -0.3008    -1.0847     6.4292 H       
  36 H36            2.4541    -1.8784     3.2727 H       
  37 H37           -2.8628    -2.5897     5.5061 H       
  38 H38           -2.6474    -0.8583     5.8586 H       
  39 H39           -3.2521    -1.3738     4.2659 H       
  40 H40            2.6721    -2.0007     6.3723 H       
  41 H41            3.1597    -0.6915     5.2693 H       
  42 H42            2.0096    -0.3627     6.5874 H       
@<TRIPOS>BOND
   1    1    2 1
   2    1    5 2
   3    2    3 2
   4    2   29 1
   5    3    4 1
   6    3   12 1
   7    4    5 1
   8    4    6 1
   9    5   30 1
  10    6    7 ar
  11    6    8 ar
  12    7   22 1
  13    7   11 ar
  14    8    9 ar
  15    9   10 ar
  16    9   31 1
  17   10   11 ar
  18   10   25 1
  19   11   32 1
  20   12   13 2
  21   12   14 2
  22   12   15 am
  23   15   16 1
  24   15   33 1
  25   16   17 ar
  26   16   21 ar
  27   17   18 ar
  28   17   34 1
  29   18   19 ar
  30   18   23 1
  31   19   20 ar
  32   19   35 1
  33   20   21 ar
  34   20   24 1
  35   21   36 1
  36   23   37 1
  37   23   38 1
  38   23   39 1
  39   24   40 1
  40   24   41 1
  41   24   42 1
  42   25   26 1
  43   25   27 1
  44   25   28 1

#	End of record

