#	Name: ASD05473003
#	Creating user name:	WinNT
#	Creation time:	15. 06. 2019 21:00

#	Modifying user name:	WinNT
#	Modification time:	15. 06. 2019 21:00

#	Program:	/corina/corina34_cracker 3.40 0067  02.08.2006

@<TRIPOS>MOLECULE
ASD05473003
  37   39    0    0    0
SMALL
NO_CHARGES


@<TRIPOS>ATOM
   1 C1            -0.0168     1.3840     0.0097 C.ar    
   2 C2             0.0021    -0.0041     0.0020 C.ar    
   3 C3             1.1979    -0.6869    -0.0127 C.ar    
   4 C4             2.4015     0.0226    -0.0204 C.ar    
   5 C5             2.3766     1.4276    -0.0131 C.ar    
   6 C6             1.1621     2.0988     0.0022 C.ar    
   7 N7             3.7072    -0.3500    -0.0345 N.2     
   8 C8             4.4641     0.7083    -0.0363 C.2     
   9 N9             3.6972     1.8317    -0.0234 N.pl3   
  10 C10            5.9709     0.6919    -0.0498 C.3     
  11 C11            6.4823    -0.1470     1.1231 C.3     
  12 C12            6.0599    -1.6048     0.9299 C.3     
  13 C13            7.9858    -0.0634     1.1827 C.ar    
  14 C14            8.6056     0.4417     2.3105 C.ar    
  15 C15            9.9844     0.5186     2.3657 C.ar    
  16 C16           10.7445     0.0901     1.2920 C.ar    
  17 C17           10.1237    -0.4153     0.1636 C.ar    
  18 C18            8.7449    -0.4970     0.1118 C.ar    
  19 Cl19          12.4764     0.1870     1.3604 Cl      
  20 Br20          -1.6268    -0.9646     0.0125 Br      
  21 C21            6.4561    -2.4075     2.1422 C.2     
  22 O22            7.0186    -1.8689     3.0659 O.2     
  23 O23            6.1841    -3.7209     2.1957 O.3     
  24 H24           -0.9613     1.9076     0.0170 H       
  25 H25            1.2053    -1.7668    -0.0178 H       
  26 H26            1.1404     3.1786     0.0075 H       
  27 H27            4.0183     2.7470    -0.0216 H       
  28 H28            6.3212     0.2584    -0.9865 H       
  29 H29            6.3462     1.7111     0.0417 H       
  30 H30            6.0601     0.2333     2.0532 H       
  31 H31            4.9791    -1.6555     0.7979 H       
  32 H32            6.5532    -2.0121     0.0473 H       
  33 H33            8.0121     0.7765     3.1484 H       
  34 H34           10.4685     0.9135     3.2467 H       
  35 H35           10.7165    -0.7499    -0.6749 H       
  36 H36            8.2602    -0.8914    -0.7690 H       
  37 H37            6.4575    -4.1937     2.9937 H       
@<TRIPOS>BOND
   1    1    2 ar
   2    1    6 ar
   3    1   24 1
   4    2    3 ar
   5    2   20 1
   6    3    4 ar
   7    3   25 1
   8    4    5 ar
   9    4    7 1
  10    5    6 ar
  11    5    9 1
  12    6   26 1
  13    7    8 2
  14    8    9 1
  15    8   10 1
  16    9   27 1
  17   10   11 1
  18   10   28 1
  19   10   29 1
  20   11   12 1
  21   11   13 1
  22   11   30 1
  23   12   21 1
  24   12   31 1
  25   12   32 1
  26   13   14 ar
  27   13   18 ar
  28   14   15 ar
  29   14   33 1
  30   15   16 ar
  31   15   34 1
  32   16   17 ar
  33   16   19 1
  34   17   18 ar
  35   17   35 1
  36   18   36 1
  37   21   22 2
  38   21   23 1
  39   23   37 1

#	End of record

