#	Name: ASD00310312
#	Creating user name:	WinNT
#	Creation time:	15. 06. 2019 18:34

#	Modifying user name:	WinNT
#	Modification time:	15. 06. 2019 18:34

#	Program:	/corina/corina34_cracker 3.40 0067  02.08.2006

@<TRIPOS>MOLECULE
ASD00310312
  38   40    0    0    0
SMALL
NO_CHARGES


@<TRIPOS>ATOM
   1 N1            -0.0162     1.3426     0.0094 N.pl3   
   2 C2             0.0021    -0.0041     0.0020 C.2     
   3 C3             1.3064    -0.4496    -0.0128 C.2     
   4 C4             2.1540     0.7598    -0.0144 C.ar    
   5 C5             3.5274     0.9736    -0.0268 C.ar    
   6 C6             4.0195     2.2728    -0.0249 C.ar    
   7 C7             3.1343     3.3560    -0.0106 C.ar    
   8 C8             1.7742     3.1460     0.0021 C.ar    
   9 C9             1.2676     1.8488    -0.0001 C.ar    
  10 C10            1.7456    -1.7969    -0.0238 C.2     
  11 O11            0.9342    -2.6999    -0.0210 O.2     
  12 C12            5.4838     2.5115    -0.0375 C.ar    
  13 C13            6.0407     3.3933    -0.9618 C.ar    
  14 C14            7.4034     3.6119    -0.9687 C.ar    
  15 C15            8.2160     2.9575    -0.0605 C.ar    
  16 C16            7.6687     2.0808     0.8588 C.ar    
  17 C17            6.3066     1.8590     0.8785 C.ar    
  18 C18            9.7033     3.2004    -0.0730 C.3     
  19 C19           10.0371     4.3686     0.8569 C.3     
  20 C20           11.5471     4.6151     0.8442 C.3     
  21 O21           11.8589     5.7062     1.7127 O.3     
  22 Cl22           3.7560     4.9768    -0.0084 Cl      
  23 H23           -0.8217     1.8829     0.0163 H       
  24 H24           -0.8721    -0.6383     0.0073 H       
  25 H25            4.2077     0.1349    -0.0374 H       
  26 H26            1.0987     3.9886     0.0134 H       
  27 H27            2.8022    -2.0203    -0.0348 H       
  28 H28            5.4071     3.9044    -1.6715 H       
  29 H29            7.8361     4.2948    -1.6848 H       
  30 H30            8.3079     1.5723     1.5654 H       
  31 H31            5.8798     1.1777     1.5996 H       
  32 H32           10.2206     2.3041     0.2694 H       
  33 H33           10.0238     3.4400    -1.0869 H       
  34 H34            9.5198     5.2648     0.5145 H       
  35 H35            9.7166     4.1290     1.8708 H       
  36 H36           12.0644     3.7189     1.1866 H       
  37 H37           11.8676     4.8547    -0.1697 H       
  38 H38           12.8013     5.9191     1.7541 H       
@<TRIPOS>BOND
   1    1    2 1
   2    1    9 1
   3    1   23 1
   4    2    3 2
   5    2   24 1
   6    3    4 1
   7    3   10 1
   8    4    5 ar
   9    4    9 ar
  10    5    6 ar
  11    5   25 1
  12    6    7 ar
  13    6   12 1
  14    7    8 ar
  15    7   22 1
  16    8    9 ar
  17    8   26 1
  18   10   11 2
  19   10   27 1
  20   12   13 ar
  21   12   17 ar
  22   13   14 ar
  23   13   28 1
  24   14   15 ar
  25   14   29 1
  26   15   16 ar
  27   15   18 1
  28   16   17 ar
  29   16   30 1
  30   17   31 1
  31   18   19 1
  32   18   32 1
  33   18   33 1
  34   19   20 1
  35   19   34 1
  36   19   35 1
  37   20   21 1
  38   20   36 1
  39   20   37 1
  40   21   38 1

#	End of record

