#	Name: ASD08150355
#	Creating user name:	WinNT
#	Creation time:	15. 06. 2019 21:15

#	Modifying user name:	WinNT
#	Modification time:	15. 06. 2019 21:15

#	Program:	/corina/corina34_cracker 3.40 0067  02.08.2006

@<TRIPOS>MOLECULE
ASD08150355
  52   56    0    0    0
SMALL
NO_CHARGES


@<TRIPOS>ATOM
   1 C1             1.2742    -0.2153     1.0476 C.3     
   2 N2             1.7614    -4.3539    -1.5622 N.am    
   3 C3             2.8603    -4.3803    -2.3410 C.2     
   4 C4             2.8489    -5.0404    -3.5866 C.2     
   5 C5             1.7226    -5.6616    -4.0202 C.2     
   6 C6             0.5645    -5.6358    -3.2034 C.ar    
   7 C7            -0.6294    -6.2646    -3.6057 C.ar    
   8 N8            -1.6961    -6.2397    -2.8500 N.ar    
   9 C9            -1.7179    -5.6209    -1.6598 C.ar    
  10 C10           -0.5614    -4.9617    -1.1751 C.ar    
  11 C11            0.6095    -4.9703    -1.9688 C.ar    
  12 C12           -0.5949    -4.3190     0.0663 C.ar    
  13 C13           -1.7630    -4.3340     0.8110 C.ar    
  14 C14           -2.9035    -4.9883     0.3248 C.ar    
  15 C15           -2.8864    -5.6184    -0.8803 C.ar    
  16 O16            3.8783    -3.8256    -1.9637 O.2     
  17 C17           -1.8070    -3.6550     2.1290 C.ar    
  18 C18            1.8000    -3.6967    -0.3269 C.ar    
  19 C19            2.1097    -4.4034     0.8281 C.ar    
  20 C20            2.1474    -3.7521     2.0451 C.ar    
  21 C21            1.8771    -2.3975     2.1148 C.ar    
  22 C22            1.5685    -1.6911     0.9670 C.ar    
  23 C23            1.5343    -2.3357    -0.2542 C.ar    
  24 C24            1.9182    -1.6900     3.4448 C.3     
  25 C25           -1.1256    -2.4578     2.3296 C.ar    
  26 N26           -1.1623    -1.8513     3.4993 N.ar    
  27 C27           -1.8404    -2.3482     4.5207 C.ar    
  28 C28           -2.5461    -3.5396     4.3972 C.ar    
  29 C29           -2.5388    -4.2058     3.1871 C.ar    
  30 O30           -1.8468    -1.6865     5.7049 O.3     
  31 C31           -1.1030    -0.4681     5.7713 C.3     
  32 H32            2.2000     0.3470     0.9261 H       
  33 H33            0.5757     0.0596     0.2573 H       
  34 H34            0.8340     0.0149     2.0178 H       
  35 H35            3.7391    -5.0515    -4.1980 H       
  36 H36            1.7090    -6.1679    -4.9741 H       
  37 H37           -0.6647    -6.7766    -4.5559 H       
  38 H38            0.2833    -3.8149     0.4418 H       
  39 H39           -3.8076    -4.9928     0.9155 H       
  40 H40           -3.7742    -6.1176    -1.2395 H       
  41 H41            2.3205    -5.4613     0.7744 H       
  42 H42            2.3881    -4.3010     2.9435 H       
  43 H43            1.2972    -1.7825    -1.1510 H       
  44 H44            2.9250    -1.3134     3.6251 H       
  45 H45            1.2150    -0.8572     3.4352 H       
  46 H46            1.6442    -2.3878     4.2361 H       
  47 H47           -0.5611    -2.0216     1.5187 H       
  48 H48           -3.0969    -3.9377     5.2366 H       
  49 H49           -3.0782    -5.1332     3.0629 H       
  50 H50           -0.0541    -0.6705     5.5546 H       
  51 H51           -1.4957     0.2376     5.0393 H       
  52 H52           -1.1919    -0.0422     6.7707 H       
@<TRIPOS>BOND
   1    1   22 1
   2    1   32 1
   3    1   33 1
   4    1   34 1
   5    2    3 am
   6    2   11 1
   7    2   18 1
   8    3    4 1
   9    3   16 2
  10    4    5 2
  11    4   35 1
  12    5    6 1
  13    5   36 1
  14    6    7 ar
  15    6   11 ar
  16    7    8 ar
  17    7   37 1
  18    8    9 ar
  19    9   10 ar
  20    9   15 ar
  21   10   11 ar
  22   10   12 ar
  23   12   13 ar
  24   12   38 1
  25   13   14 ar
  26   13   17 1
  27   14   15 ar
  28   14   39 1
  29   15   40 1
  30   17   25 ar
  31   17   29 ar
  32   18   19 ar
  33   18   23 ar
  34   19   20 ar
  35   19   41 1
  36   20   21 ar
  37   20   42 1
  38   21   22 ar
  39   21   24 1
  40   22   23 ar
  41   23   43 1
  42   24   44 1
  43   24   45 1
  44   24   46 1
  45   25   26 ar
  46   25   47 1
  47   26   27 ar
  48   27   28 ar
  49   27   30 1
  50   28   29 ar
  51   28   48 1
  52   29   49 1
  53   30   31 1
  54   31   50 1
  55   31   51 1
  56   31   52 1

#	End of record

