#	Name: ASD01915892
#	Creating user name:	WinNT
#	Creation time:	15. 06. 2019 20:06

#	Modifying user name:	WinNT
#	Modification time:	15. 06. 2019 20:06

#	Program:	/corina/corina34_cracker 3.40 0067  02.08.2006

@<TRIPOS>MOLECULE
ASD01915892
  27   29    0    0    0
SMALL
NO_CHARGES


@<TRIPOS>ATOM
   1 C1             0.0140     1.2662    -0.7518 C.2     
   2 C2             0.0156    -0.0537    -0.3398 C.2     
   3 C3            -1.2989    -0.8069    -0.2246 C.3     
   4 C4            -2.4038     0.1862     0.1297 C.3     
   5 N5            -2.3822     1.3775    -0.7088 N.am    
   6 C6            -1.2250     1.9690    -1.0915 C.2     
   7 O7            -1.2160     3.0338    -1.6815 O.2     
   8 S8             1.6653     1.8437    -0.7793 S.3     
   9 C9             2.2182     0.3131    -0.2516 C.2     
  10 N10            1.2181    -0.5032    -0.0893 N.2     
  11 H11           -3.2237     1.7581    -1.0054 H       
  12 O12            3.5150    -0.0045    -0.0338 O.3     
  13 C13            4.4409     0.9843    -0.1418 C.ar    
  14 C14            4.5789     1.9205     0.8724 C.ar    
  15 C15            5.5217     2.9256     0.7598 C.ar    
  16 C16            6.3263     2.9977    -0.3635 C.ar    
  17 C17            6.1899     2.0652    -1.3753 C.ar    
  18 C18            5.2536     1.0558    -1.2645 C.ar    
  19 Cl19           5.6956     4.0980     2.0283 Cl      
  20 H20           -1.5299    -1.2867    -1.1758 H       
  21 H21           -1.2206    -1.5613     0.5583 H       
  22 H22           -3.3694    -0.3066     0.0155 H       
  23 H23           -2.2858     0.4867     1.1707 H       
  24 H24            3.9503     1.8645     1.7488 H       
  25 H25            7.0618     3.7838    -0.4504 H       
  26 H26            6.8191     2.1236    -2.2512 H       
  27 H27            5.1478     0.3279    -2.0553 H       
@<TRIPOS>BOND
   1    1    2 2
   2    1    8 1
   3    1    6 1
   4    2    3 1
   5    2   10 1
   6    3    4 1
   7    3   20 1
   8    3   21 1
   9    4    5 1
  10    4   22 1
  11    4   23 1
  12    5    6 am
  13    5   11 1
  14    6    7 2
  15    8    9 1
  16    9   10 2
  17    9   12 1
  18   12   13 1
  19   13   14 ar
  20   13   18 ar
  21   14   15 ar
  22   14   24 1
  23   15   16 ar
  24   15   19 1
  25   16   17 ar
  26   16   25 1
  27   17   18 ar
  28   17   26 1
  29   18   27 1

#	End of record

