#	Name: ASD00071042
#	Creating user name:	WinNT
#	Creation time:	15. 06. 2019 18:30

#	Modifying user name:	WinNT
#	Modification time:	15. 06. 2019 18:30

#	Program:	/corina/corina34_cracker 3.40 0067  02.08.2006

@<TRIPOS>MOLECULE
ASD00071042
  35   37    0    0    0
SMALL
NO_CHARGES


@<TRIPOS>ATOM
   1 N1             1.8393     1.2404    -1.2048 N.ar    
   2 C2             1.6421    -0.0635    -1.1908 C.ar    
   3 C3             1.3753    -0.7535     0.0012 C.ar    
   4 C4             1.3150    -0.0752     1.1814 C.ar    
   5 C5             1.5267     1.3176     1.1592 C.ar    
   6 C6             1.4829     2.0948     2.3241 C.ar    
   7 N7             1.6862     3.3912     2.2545 N.ar    
   8 C8             1.9363     4.0147     1.1119 C.ar    
   9 C9             1.9994     3.3475    -0.0737 C.ar    
  10 C10            1.7922     1.9559    -0.0797 C.ar    
  11 N11            1.6993    -0.7688    -2.3818 N.pl3   
  12 C12            1.1549    -2.2441    -0.0236 C.3     
  13 C13            1.0242    -2.7561     1.3877 C.ar    
  14 C14           -0.2254    -2.8651     1.9721 C.ar    
  15 C15           -0.3446    -3.3352     3.2692 C.ar    
  16 C16            0.7836    -3.6963     3.9819 C.ar    
  17 C17            2.0327    -3.5894     3.4018 C.ar    
  18 C18            2.1555    -3.1241     2.1002 C.ar    
  19 O19            3.3834    -3.0234     1.5267 O.3     
  20 C20            4.5042    -3.4202     2.3194 C.3     
  21 F21           -1.3291    -2.5123     1.2774 F       
  22 H22            1.1104    -0.5907     2.1081 H       
  23 H23            1.2819     1.6293     3.2776 H       
  24 H24            2.0943     5.0831     1.1214 H       
  25 H25            2.2043     3.8770    -0.9924 H       
  26 H26            1.8013    -0.2946    -3.2218 H       
  27 H27            1.6373    -1.7368    -2.3757 H       
  28 H28            0.2428    -2.4673    -0.5771 H       
  29 H29            2.0022    -2.7285    -0.5089 H       
  30 H30           -1.3202    -3.4196     3.7247 H       
  31 H31            0.6883    -4.0621     4.9936 H       
  32 H32            2.9132    -3.8715     3.9598 H       
  33 H33            5.4206    -3.2903     1.7438 H       
  34 H34            4.5495    -2.8052     3.2182 H       
  35 H35            4.3975    -4.4678     2.6010 H       
@<TRIPOS>BOND
   1    1    2 ar
   2    1   10 ar
   3    2    3 ar
   4    2   11 1
   5    3    4 ar
   6    3   12 1
   7    4    5 ar
   8    4   22 1
   9    5    6 ar
  10    5   10 ar
  11    6    7 ar
  12    6   23 1
  13    7    8 ar
  14    8    9 ar
  15    8   24 1
  16    9   10 ar
  17    9   25 1
  18   11   26 1
  19   11   27 1
  20   12   13 1
  21   12   28 1
  22   12   29 1
  23   13   14 ar
  24   13   18 ar
  25   14   15 ar
  26   14   21 1
  27   15   16 ar
  28   15   30 1
  29   16   17 ar
  30   16   31 1
  31   17   18 ar
  32   17   32 1
  33   18   19 1
  34   19   20 1
  35   20   33 1
  36   20   34 1
  37   20   35 1

#	End of record

