#	Name: ASD02198414
#	Creating user name:	WinNT
#	Creation time:	15. 06. 2019 20:19

#	Modifying user name:	WinNT
#	Modification time:	15. 06. 2019 20:19

#	Program:	/corina/corina34_cracker 3.40 0067  02.08.2006

@<TRIPOS>MOLECULE
ASD02198414
  42   45    0    0    0
SMALL
NO_CHARGES


@<TRIPOS>ATOM
   1 C1            -0.2132     1.0555    -0.3402 C.2     
   2 C2            -0.1181    -0.2749    -0.3554 C.2     
   3 S3             1.3935     1.7603    -0.2169 S.3     
   4 C4             2.1257     0.1613    -0.1924 C.2     
   5 C5             1.1726    -0.7684    -0.2739 C.2     
   6 S6             3.8538    -0.1629    -0.0781 S.o2    
   7 N7             4.4438    -0.2267    -1.6241 N.am    
   8 C8             4.3266     0.8820    -2.4614 C.ar    
   9 C9             4.0869     0.7087    -3.8424 C.ar    
  10 C10            3.9717     1.8528    -4.6692 C.ar    
  11 C11            4.0970     3.1336    -4.1077 C.ar    
  12 C12            4.3285     3.2703    -2.7725 C.ar    
  13 C13            4.4379     2.1555    -1.9468 C.ar    
  14 N14            3.9691    -0.5111    -4.3734 N.ar    
  15 C15            3.7470    -0.6784    -5.6545 C.ar    
  16 C16            3.6235     0.4033    -6.5240 C.ar    
  17 C17            3.7327     1.6778    -6.0458 C.ar    
  18 O18            4.4378     0.9824     0.5273 O.2     
  19 O19            3.9818    -1.4740     0.4546 O.2     
  20 S20           -1.7178     1.9674    -0.4364 S.o2    
  21 C21           -2.2876     2.2092     1.2134 C.ar    
  22 C22           -1.8944     3.3281     1.9234 C.ar    
  23 C23           -2.3413     3.5178     3.2177 C.ar    
  24 C24           -3.1818     2.5887     3.8018 C.ar    
  25 C25           -3.5758     1.4702     3.0914 C.ar    
  26 C26           -3.1323     1.2827     1.7956 C.ar    
  27 O27           -1.3764     3.2533    -0.9355 O.2     
  28 O28           -2.6640     1.1150    -1.0668 O.2     
  29 H29           -0.9826    -0.9184    -0.4258 H       
  30 H30            1.3914    -1.8260    -0.2757 H       
  31 H31            4.8710    -1.0354    -1.9472 H       
  32 H32            4.0104     4.0093    -4.7339 H       
  33 H33            4.4242     4.2586    -2.3475 H       
  34 H34            4.6213     2.2899    -0.8910 H       
  35 H35            3.6578    -1.6809    -6.0463 H       
  36 H36            3.4413     0.2340    -7.5750 H       
  37 H37            3.6393     2.5279    -6.7053 H       
  38 H38           -1.2377     4.0540     1.4670 H       
  39 H39           -2.0335     4.3917     3.7726 H       
  40 H40           -3.5304     2.7365     4.8132 H       
  41 H41           -4.2322     0.7441     3.5479 H       
  42 H42           -3.4401     0.4088     1.2406 H       
@<TRIPOS>BOND
   1    1    2 2
   2    1    3 1
   3    1   20 1
   4    2    5 1
   5    2   29 1
   6    3    4 1
   7    4    5 2
   8    4    6 1
   9    5   30 1
  10    6    7 am
  11    6   18 2
  12    6   19 2
  13    7    8 1
  14    7   31 1
  15    8    9 ar
  16    8   13 ar
  17    9   10 ar
  18    9   14 ar
  19   10   11 ar
  20   10   17 ar
  21   11   12 ar
  22   11   32 1
  23   12   13 ar
  24   12   33 1
  25   13   34 1
  26   14   15 ar
  27   15   16 ar
  28   15   35 1
  29   16   17 ar
  30   16   36 1
  31   17   37 1
  32   20   21 1
  33   20   27 2
  34   20   28 2
  35   21   22 ar
  36   21   26 ar
  37   22   23 ar
  38   22   38 1
  39   23   24 ar
  40   23   39 1
  41   24   25 ar
  42   24   40 1
  43   25   26 ar
  44   25   41 1
  45   26   42 1

#	End of record

