#	Name: ASD02198602
#	Creating user name:	WinNT
#	Creation time:	15. 06. 2019 20:19

#	Modifying user name:	WinNT
#	Modification time:	15. 06. 2019 20:19

#	Program:	/corina/corina34_cracker 3.40 0067  02.08.2006

@<TRIPOS>MOLECULE
ASD02198602
  42   45    0    0    0
SMALL
NO_CHARGES


@<TRIPOS>ATOM
   1 C1             0.0840     1.0003    -0.1378 C.2     
   2 C2             0.3522    -0.3270    -0.2228 C.2     
   3 N3             1.6268    -0.7781    -0.2221 N.pl3   
   4 N4             2.6469    -0.0058    -0.1434 N.2     
   5 C5             2.5286     1.3018    -0.0566 C.2     
   6 C6             1.1802     1.8917    -0.0495 C.2     
   7 C7             1.8433    -2.1575    -0.3115 C.ar    
   8 C8             0.7692    -3.0358    -0.2397 C.ar    
   9 C9             0.9836    -4.3963    -0.3284 C.ar    
  10 C10            2.2718    -4.8872    -0.4887 C.ar    
  11 C11            3.3454    -4.0106    -0.5600 C.ar    
  12 C12            3.1320    -2.6495    -0.4777 C.ar    
  13 C13            3.7263     2.1614     0.0326 C.2     
  14 N14            4.8632     1.8986     0.7441 N.pl3   
  15 N15            5.7433     2.9712     0.5533 N.2     
  16 C16            5.1742     3.8475    -0.2355 C.2     
  17 C17            3.9102     3.3762    -0.5905 C.2     
  18 C18            5.1046     0.7609     1.5246 C.ar    
  19 C19            4.1066     0.2580     2.3489 C.ar    
  20 O20            1.0139     3.0998     0.0290 O.2     
  21 C21            6.3407     0.1302     1.4716 C.ar    
  22 C22            6.5756    -0.9913     2.2426 C.ar    
  23 C23            5.5815    -1.4863     3.0667 C.ar    
  24 C24            4.3477    -0.8639     3.1174 C.ar    
  25 O25            2.4821    -6.2271    -0.5755 O.3     
  26 C26            3.8333    -6.6624    -0.7398 C.3     
  27 F27            4.5977    -6.2317     0.3498 F       
  28 F28            3.8678    -8.0592    -0.8107 F       
  29 F29            4.3570    -6.1225    -1.9194 F       
  30 H30           -0.9325     1.3652    -0.1420 H       
  31 H31           -0.4629    -1.0322    -0.2914 H       
  32 H32           -0.2333    -2.6540    -0.1143 H       
  33 H33            0.1488    -5.0792    -0.2727 H       
  34 H34            4.3475    -4.3934    -0.6844 H       
  35 H35            3.9676    -1.9674    -0.5335 H       
  36 H36            5.6128     4.7791    -0.5613 H       
  37 H37            3.2005     3.8771    -1.2322 H       
  38 H38            3.1429     0.7439     2.3892 H       
  39 H39            7.1173     0.5161     0.8280 H       
  40 H40            7.5366    -1.4825     2.2016 H       
  41 H41            5.7677    -2.3635     3.6686 H       
  42 H42            3.5735    -1.2526     3.7622 H       
@<TRIPOS>BOND
   1    1    2 2
   2    1    6 1
   3    1   30 1
   4    2    3 1
   5    2   31 1
   6    3    4 1
   7    3    7 1
   8    4    5 2
   9    5    6 1
  10    5   13 1
  11    6   20 2
  12    7    8 ar
  13    7   12 ar
  14    8    9 ar
  15    8   32 1
  16    9   10 ar
  17    9   33 1
  18   10   11 ar
  19   10   25 1
  20   11   12 ar
  21   11   34 1
  22   12   35 1
  23   13   14 1
  24   13   17 2
  25   14   15 1
  26   14   18 1
  27   15   16 2
  28   16   17 1
  29   16   36 1
  30   17   37 1
  31   18   21 ar
  32   18   19 ar
  33   19   24 ar
  34   19   38 1
  35   21   22 ar
  36   21   39 1
  37   22   23 ar
  38   22   40 1
  39   23   24 ar
  40   23   41 1
  41   24   42 1
  42   25   26 1
  43   26   27 1
  44   26   28 1
  45   26   29 1

#	End of record

