#	Name: ASD03330616
#	Creating user name:	WinNT
#	Creation time:	15. 06. 2019 20:37

#	Modifying user name:	WinNT
#	Modification time:	15. 06. 2019 20:37

#	Program:	/corina/corina34_cracker 3.40 0067  02.08.2006

@<TRIPOS>MOLECULE
ASD03330616
  64   66    0    0    0
SMALL
NO_CHARGES


@<TRIPOS>ATOM
   1 C1            -0.0601     2.0031     1.7842 C.2     
   2 N2            -0.1486     0.7116     2.1996 N.pl3   
   3 C3             1.2165     2.1978     1.3516 C.2     
   4 N4             1.8814     1.0298     1.4902 N.2     
   5 C5             1.0683     0.1307     1.9931 C.2     
   6 C6             1.4135    -1.2775     2.2864 C.ar    
   7 C7             1.7729     3.4568     0.8257 C.2     
   8 O8             1.0704     4.4467     0.7484 O.2     
   9 C9             3.6133     4.7632    -0.0927 C.3     
  10 N10            3.0601     3.5115     0.4302 N.am    
  11 C11            3.3026     4.8733    -1.5868 C.3     
  12 C12            1.7919     4.7636    -1.8030 C.3     
  13 C13            3.7963     6.2227    -2.1123 C.3     
  14 C14            4.0088     3.7436    -2.3391 C.3     
  15 C15            5.1062     4.7771     0.1123 C.2     
  16 N16            5.7933     5.9294    -0.0156 N.am    
  17 O17            5.6894     3.7512     0.3923 O.2     
  18 C18            7.2529     5.9298     0.1104 C.3     
  19 C19           -1.3413     0.0840     2.7752 C.3     
  20 C20           -2.5570     0.4264     1.9084 C.3     
  21 C21           -3.1663     1.7454     2.3725 C.3     
  22 N22           -2.1324     2.6614     2.8584 N.3     
  23 C23           -1.1820     3.0088     1.7914 C.3     
  24 C24           -2.7312     3.8685     3.4435 C.3     
  25 C25            1.0566    -1.8436     3.5065 C.ar    
  26 C26            1.3857    -3.1714     3.7754 C.ar    
  27 C27            2.0712    -3.9263     2.8202 C.ar    
  28 C28            2.4235    -3.3610     1.6123 C.ar    
  29 C29            2.0948    -2.0453     1.3356 C.ar    
  30 F30            2.4425    -1.4981     0.1503 F       
  31 C31            1.0105    -3.7792     5.0688 C.2     
  32 N32            1.3292    -5.0629     5.3277 N.am    
  33 O33            0.4145    -3.1214     5.8994 O.2     
  34 H34            3.1663     5.6062     0.4344 H       
  35 H35            3.6204     2.7220     0.4918 H       
  36 H36            1.2888     5.5684    -1.2670 H       
  37 H37            1.5706     4.8420    -2.8674 H       
  38 H38            1.4401     3.8023    -1.4286 H       
  39 H39            4.8407     6.3614    -1.8328 H       
  40 H40            3.7048     6.2452    -3.1982 H       
  41 H41            3.1952     7.0228    -1.6804 H       
  42 H42            3.6570     2.7823    -1.9647 H       
  43 H43            3.7875     3.8220    -3.4035 H       
  44 H44            5.0850     3.8218    -2.1851 H       
  45 H45            5.3214     6.7585    -0.1912 H       
  46 H46            7.6287     6.9444    -0.0220 H       
  47 H47            7.5323     5.5650     1.0988 H       
  48 H48            7.6836     5.2805    -0.6517 H       
  49 H49           -1.2065    -0.9973     2.8029 H       
  50 H50           -1.4979     0.4586     3.7867 H       
  51 H51           -2.2461     0.5171     0.8676 H       
  52 H52           -3.2997    -0.3666     1.9961 H       
  53 H53           -3.6921     2.2097     1.5382 H       
  54 H54           -3.8759     1.5485     3.1761 H       
  55 H55           -0.7777     4.0045     1.9735 H       
  56 H56           -1.6927     2.9920     0.8287 H       
  57 H57           -3.3707     3.5877     4.2804 H       
  58 H58           -1.9413     4.5315     3.7963 H       
  59 H59           -3.3260     4.3818     2.6880 H       
  60 H60            0.5271    -1.2566     4.2423 H       
  61 H61            2.3263    -4.9549     3.0283 H       
  62 H62            2.9536    -3.9488     0.8776 H       
  63 H63            1.8048    -5.5877     4.6650 H       
  64 H64            1.0828    -5.4620     6.1768 H       
@<TRIPOS>BOND
   1    1    2 1
   2    1    3 2
   3    1   23 1
   4    2   19 1
   5    2    5 1
   6    3    4 1
   7    3    7 1
   8    4    5 2
   9    5    6 1
  10    6   25 ar
  11    6   29 ar
  12    7    8 2
  13    7   10 am
  14    9   10 1
  15    9   11 1
  16    9   15 1
  17    9   34 1
  18   10   35 1
  19   11   12 1
  20   11   13 1
  21   11   14 1
  22   12   36 1
  23   12   37 1
  24   12   38 1
  25   13   39 1
  26   13   40 1
  27   13   41 1
  28   14   42 1
  29   14   43 1
  30   14   44 1
  31   15   16 am
  32   15   17 2
  33   16   18 1
  34   16   45 1
  35   18   46 1
  36   18   47 1
  37   18   48 1
  38   19   20 1
  39   19   49 1
  40   19   50 1
  41   20   21 1
  42   20   51 1
  43   20   52 1
  44   21   22 1
  45   21   53 1
  46   21   54 1
  47   22   23 1
  48   22   24 1
  49   23   55 1
  50   23   56 1
  51   24   57 1
  52   24   58 1
  53   24   59 1
  54   25   26 ar
  55   25   60 1
  56   26   27 ar
  57   26   31 1
  58   27   28 ar
  59   27   61 1
  60   28   29 ar
  61   28   62 1
  62   29   30 1
  63   31   32 am
  64   31   33 2
  65   32   63 1
  66   32   64 1

#	End of record

