#	Name: ASD02508321
#	Creating user name:	WinNT
#	Creation time:	15. 06. 2019 20:24

#	Modifying user name:	WinNT
#	Modification time:	15. 06. 2019 20:24

#	Program:	/corina/corina34_cracker 3.40 0067  02.08.2006

@<TRIPOS>MOLECULE
ASD02508321
  38   39    0    0    0
SMALL
NO_CHARGES


@<TRIPOS>ATOM
   1 C1            -0.0168     1.3870     0.0097 C.ar    
   2 C2             0.0021    -0.0041     0.0020 C.ar    
   3 C3            -1.1923    -0.7110     0.0101 C.ar    
   4 C4            -2.3958    -0.0319     0.0257 C.ar    
   5 C5            -2.4121     1.3502     0.0328 C.ar    
   6 C6            -1.2244     2.0594     0.0306 C.ar    
   7 S7            -3.9495     2.2109     0.0522 S.o2    
   8 O8            -3.6945     3.5001    -0.4883 O.2     
   9 O9            -4.9154     1.3191    -0.4874 O.2     
  10 C10           -4.3882     2.4571     1.7408 C.ar    
  11 C11           -3.9755     3.5984     2.4028 C.ar    
  12 C12           -4.3196     3.7916     3.7276 C.ar    
  13 C13           -5.0768     2.8437     4.3903 C.ar    
  14 C14           -5.4903     1.7029     3.7281 C.ar    
  15 C15           -5.1498     1.5118     2.4020 C.ar    
  16 N16            1.2215    -0.6884    -0.0143 N.am    
  17 C17            1.7931    -1.1365    -1.2865 C.3     
  18 S18            2.0194    -0.9923     1.4047 S.o2    
  19 C19            1.3827    -2.6022     1.9462 C.3     
  20 O20            3.3842    -1.0985     1.0234 O.2     
  21 O21            1.5814     0.0374     2.2805 O.2     
  22 F22            1.1432     2.0795     0.0023 F       
  23 C23            2.5627    -0.0379    -1.8927 C.1     
  24 C24            3.1766     0.8383    -2.3762 C.1     
  25 H25           -1.1811    -1.7909     0.0038 H       
  26 H26           -3.3251    -0.5821     0.0320 H       
  27 H27           -1.2407     3.1393     0.0365 H       
  28 H28           -3.3840     4.3389     1.8850 H       
  29 H29           -3.9966     4.6828     4.2450 H       
  30 H30           -5.3451     2.9943     5.4256 H       
  31 H31           -6.0816     0.9623     4.2460 H       
  32 H32           -5.4728     0.6205     1.8847 H       
  33 H33            2.4515    -1.9870    -1.1096 H       
  34 H34            0.9900    -1.4330    -1.9613 H       
  35 H35            1.7286    -3.3781     1.2633 H       
  36 H36            1.7440    -2.8161     2.9522 H       
  37 H37            0.2929    -2.5798     1.9487 H       
  38 H38            3.7256     1.6219    -2.8085 H       
@<TRIPOS>BOND
   1    1    2 ar
   2    1   22 1
   3    1    6 ar
   4    2    3 ar
   5    2   16 1
   6    3    4 ar
   7    3   25 1
   8    4    5 ar
   9    4   26 1
  10    5    6 ar
  11    5    7 1
  12    6   27 1
  13    7    8 2
  14    7    9 2
  15    7   10 1
  16   10   11 ar
  17   10   15 ar
  18   11   12 ar
  19   11   28 1
  20   12   13 ar
  21   12   29 1
  22   13   14 ar
  23   13   30 1
  24   14   15 ar
  25   14   31 1
  26   15   32 1
  27   16   17 1
  28   16   18 am
  29   17   23 1
  30   17   33 1
  31   17   34 1
  32   18   19 1
  33   18   20 2
  34   18   21 2
  35   19   35 1
  36   19   36 1
  37   19   37 1
  38   23   24 3
  39   24   38 1

#	End of record

