#	Name: ASD03731717
#	Creating user name:	WinNT
#	Creation time:	15. 06. 2019 20:46

#	Modifying user name:	WinNT
#	Modification time:	15. 06. 2019 20:46

#	Program:	/corina/corina34_cracker 3.40 0067  02.08.2006

@<TRIPOS>MOLECULE
ASD03731717
  36   37    0    0    0
SMALL
NO_CHARGES


@<TRIPOS>ATOM
   1 C1             0.7606     1.4150    -0.4030 C.2     
   2 C2             0.5755    -0.0459    -0.3023 C.ar    
   3 C3             1.5341    -0.9119    -0.8350 C.ar    
   4 C4             1.3581    -2.2741    -0.7387 C.ar    
   5 C5             0.2282    -2.7883    -0.1128 C.ar    
   6 C6            -0.7279    -1.9300     0.4181 C.ar    
   7 C7            -0.5560    -0.5666     0.3312 C.ar    
   8 O8             1.7481     1.8663    -0.9500 O.2     
   9 N9            -0.1678     2.2486     0.1066 N.am    
  10 S10            0.0399     3.8876    -0.0064 S.o2    
  11 O11           -1.0986     4.4310     0.6476 O.2     
  12 O12            1.3499     4.1104     0.4972 O.2     
  13 C13           -0.0246     4.2304    -1.7866 C.3     
  14 O14            0.0581    -4.1313    -0.0202 O.3     
  15 C15            0.5841    -4.7681     1.0588 C.ar    
  16 C16            0.5359    -6.1527     1.1405 C.ar    
  17 C17            1.0715    -6.7983     2.2378 C.ar    
  18 C18            1.6554    -6.0665     3.2554 C.ar    
  19 C19            1.7046    -4.6859     3.1773 C.ar    
  20 C20            1.1752    -4.0356     2.0777 C.ar    
  21 C21           -0.1011    -6.9515     0.0326 C.3     
  22 Cl22           2.4379    -3.7701     4.4569 Cl      
  23 H23            2.4118    -0.5132    -1.3221 H       
  24 H24            2.0985    -2.9440    -1.1502 H       
  25 H25           -1.6045    -2.3332     0.9033 H       
  26 H26           -1.2969     0.0995     0.7481 H       
  27 H27           -0.9576     1.8885     0.5395 H       
  28 H28           -0.9896     3.9142    -2.1827 H       
  29 H29            0.1050     5.2994    -1.9557 H       
  30 H30            0.7721     3.6836    -2.2910 H       
  31 H31            1.0339    -7.8758     2.3012 H       
  32 H32            2.0733    -6.5732     4.1127 H       
  33 H33            1.2179    -2.9583     2.0144 H       
  34 H34            0.6528    -7.2039    -0.7131 H       
  35 H35           -0.5268    -7.8671     0.4432 H       
  36 H36           -0.8899    -6.3612    -0.4337 H       
@<TRIPOS>BOND
   1    1    2 1
   2    1    8 2
   3    1    9 am
   4    2    3 ar
   5    2    7 ar
   6    3    4 ar
   7    3   23 1
   8    4    5 ar
   9    4   24 1
  10    5    6 ar
  11    5   14 1
  12    6    7 ar
  13    6   25 1
  14    7   26 1
  15    9   10 am
  16    9   27 1
  17   10   11 2
  18   10   12 2
  19   10   13 1
  20   13   28 1
  21   13   29 1
  22   13   30 1
  23   14   15 1
  24   15   16 ar
  25   15   20 ar
  26   16   17 ar
  27   16   21 1
  28   17   18 ar
  29   17   31 1
  30   18   19 ar
  31   18   32 1
  32   19   20 ar
  33   19   22 1
  34   20   33 1
  35   21   34 1
  36   21   35 1
  37   21   36 1

#	End of record

