#	Name: ASD09610063
#	Creating user name:	WinNT
#	Creation time:	15. 06. 2019 21:22

#	Modifying user name:	WinNT
#	Modification time:	15. 06. 2019 21:22

#	Program:	/corina/corina34_cracker 3.40 0067  02.08.2006

@<TRIPOS>MOLECULE
ASD09610063
  68   72    0    0    0
SMALL
NO_CHARGES


@<TRIPOS>ATOM
   1 S1            -0.0270     1.6918    -0.0709 S.3     
   2 C2             0.0012    -0.0155    -0.0970 C.2     
   3 N3             1.2129    -0.4475    -0.0876 N.2     
   4 C4             2.1635     0.4904    -0.0604 C.2     
   5 C5             1.6811     1.7534    -0.0472 C.2     
   6 C6             3.6026     0.1779    -0.0462 C.2     
   7 O7             4.4204     1.0744    -0.1298 O.2     
   8 N8             4.0134    -1.1013     0.0596 N.am    
   9 C9             5.4381    -1.4245    -0.0497 C.3     
  10 C10            5.9039    -2.0912     1.2432 C.3     
  11 C11            7.3292    -2.6148     1.0306 C.3     
  12 C12            7.2690    -3.7963     0.0644 C.3     
  13 C13            6.4941    -3.4289    -1.1739 C.ar    
  14 C14            6.6501    -4.2321    -2.2966 C.ar    
  15 C15            5.9650    -3.9510    -3.4603 C.ar    
  16 C16            5.1151    -2.8616    -3.5106 C.ar    
  17 C17            4.9598    -2.0621    -2.3973 C.ar    
  18 C18            5.6506    -2.3422    -1.2251 C.ar    
  19 N19           -4.0127    -1.3584    -0.1699 N.am    
  20 C20           -3.2995    -1.5428     1.1013 C.3     
  21 C21           -2.0740    -0.6238     1.1169 C.3     
  22 C22           -1.2230    -0.8938    -0.1261 C.3     
  23 C23           -2.0408    -0.5871    -1.3828 C.3     
  24 C24           -3.2660    -1.5057    -1.4267 C.3     
  25 C25           -5.3282    -1.0654    -0.1831 C.2     
  26 O26           -5.9345    -0.9514     0.8611 O.2     
  27 C27           -6.0456    -0.8792    -1.4952 C.3     
  28 N28           -7.4551    -0.5706    -1.2416 N.pl3   
  29 N29           -8.0020     0.7086    -1.0772 N.2     
  30 C30           -9.2873     0.5799    -0.8692 C.2     
  31 C31           -9.5998    -0.7832    -0.8946 C.2     
  32 C32           -8.4569    -1.4680    -1.1309 C.2     
  33 C33          -10.2626     1.7059    -0.6413 C.3     
  34 F34           -9.6056     2.9310    -0.7985 F       
  35 F35          -11.3060     1.6141    -1.5688 F       
  36 F36          -10.7817     1.6181     0.6548 F       
  37 C37           -8.3256    -2.9648    -1.2461 C.3     
  38 C38            3.0353    -2.1687     0.2837 C.3     
  39 H39            2.2773     2.6536    -0.0253 H       
  40 H40            6.0042    -0.5060    -0.2045 H       
  41 H41            5.8973    -1.3634     2.0546 H       
  42 H42            5.2407    -2.9208     1.4880 H       
  43 H43            7.9509    -1.8259     0.6074 H       
  44 H44            7.7466    -2.9406     1.9833 H       
  45 H45            8.2824    -4.0822    -0.2173 H       
  46 H46            6.7823    -4.6384     0.5564 H       
  47 H47            7.3135    -5.0834    -2.2580 H       
  48 H48            6.0924    -4.5795    -4.3293 H       
  49 H49            4.5750    -2.6372    -4.4185 H       
  50 H50            4.2962    -1.2110    -2.4376 H       
  51 H51           -3.9588    -1.2867     1.9307 H       
  52 H52           -2.9792    -2.5806     1.1934 H       
  53 H53           -2.3993     0.4165     1.1161 H       
  54 H54           -1.4834    -0.8201     2.0117 H       
  55 H55           -0.9188    -1.9405    -0.1376 H       
  56 H56           -2.3665     0.4529    -1.3601 H       
  57 H57           -1.4267    -0.7572    -2.2671 H       
  58 H58           -2.9430    -2.5404    -1.5407 H       
  59 H59           -3.9032    -1.2251    -2.2654 H       
  60 H60           -5.5874    -0.0582    -2.0466 H       
  61 H61           -5.9741    -1.7953    -2.0816 H       
  62 H62          -10.5807    -1.2129    -0.7548 H       
  63 H63           -8.1257    -3.3888    -0.2620 H       
  64 H64           -9.2526    -3.3817    -1.6398 H       
  65 H65           -7.5035    -3.2067    -1.9197 H       
  66 H66            2.6130    -2.4809    -0.6714 H       
  67 H67            3.5265    -3.0178     0.7588 H       
  68 H68            2.2385    -1.8014     0.9305 H       
@<TRIPOS>BOND
   1    1    2 1
   2    1    5 1
   3    2    3 2
   4    2   22 1
   5    3    4 1
   6    4    5 2
   7    4    6 1
   8    5   39 1
   9    6    7 2
  10    6    8 am
  11    8    9 1
  12    8   38 1
  13    9   10 1
  14    9   18 1
  15    9   40 1
  16   10   11 1
  17   10   41 1
  18   10   42 1
  19   11   12 1
  20   11   43 1
  21   11   44 1
  22   12   13 1
  23   12   45 1
  24   12   46 1
  25   13   14 ar
  26   13   18 ar
  27   14   15 ar
  28   14   47 1
  29   15   16 ar
  30   15   48 1
  31   16   17 ar
  32   16   49 1
  33   17   18 ar
  34   17   50 1
  35   19   20 1
  36   19   24 1
  37   19   25 am
  38   20   21 1
  39   20   51 1
  40   20   52 1
  41   21   22 1
  42   21   53 1
  43   21   54 1
  44   22   23 1
  45   22   55 1
  46   23   24 1
  47   23   56 1
  48   23   57 1
  49   24   58 1
  50   24   59 1
  51   25   26 2
  52   25   27 1
  53   27   28 1
  54   27   60 1
  55   27   61 1
  56   28   29 1
  57   28   32 1
  58   29   30 2
  59   30   31 1
  60   30   33 1
  61   31   32 2
  62   31   62 1
  63   32   37 1
  64   33   34 1
  65   33   35 1
  66   33   36 1
  67   37   63 1
  68   37   64 1
  69   37   65 1
  70   38   66 1
  71   38   67 1
  72   38   68 1

#	End of record

