#	Name: ASD01810655
#	Creating user name:	WinNT
#	Creation time:	15. 06. 2019 19:25

#	Modifying user name:	WinNT
#	Modification time:	15. 06. 2019 19:25

#	Program:	/corina/corina34_cracker 3.40 0067  02.08.2006

@<TRIPOS>MOLECULE
ASD01810655
  63   67    0    0    0
SMALL
NO_CHARGES


@<TRIPOS>ATOM
   1 C1            -0.1652     1.9469     0.4803 C.ar    
   2 C2             0.0728     0.5713     0.4932 C.ar    
   3 C3            -0.9785    -0.3157     0.3687 C.ar    
   4 C4            -2.2704     0.1505     0.2302 C.ar    
   5 C5            -2.5224     1.5243     0.2157 C.ar    
   6 C6            -1.4671     2.4243     0.3467 C.ar    
   7 C7            -3.9068     2.0222     0.0668 C.2     
   8 C8             1.4800     0.0532     0.6429 C.3     
   9 C9            -3.4112    -0.8247     0.0939 C.3     
  10 N10           -4.4239     2.8607     0.9866 N.am    
  11 O11           -4.5783     1.6753    -0.8851 O.2     
  12 C12           -5.8242     3.2968     0.8986 C.3     
  13 C13           -3.5998     3.3512     2.0997 C.3     
  14 C14           -4.3229     3.0536     3.4170 C.3     
  15 C15           -5.7314     3.6501     3.3673 C.3     
  16 C16           -6.5178     2.9999     2.2319 C.3     
  17 C17           -6.4338     3.3887     4.6747 C.ar    
  18 C18           -6.8751     4.4509     5.4437 C.ar    
  19 C19           -7.5192     4.2188     6.6413 C.ar    
  20 C20           -7.7254     2.9083     7.0769 C.ar    
  21 C21           -7.2774     1.8411     6.2958 C.ar    
  22 C22           -6.6395     2.0875     5.0977 C.ar    
  23 C23           -8.3929     2.6599     8.3192 C.1     
  24 C24            0.9620     2.8955     0.6143 C.2     
  25 N25            2.2159     2.5728     0.8531 N.2     
  26 C26            2.9511     3.6834     0.9080 C.2     
  27 C27            2.1363     4.7427     0.6990 C.2     
  28 N28            0.8798     4.2552     0.5055 N.pl3   
  29 C29            4.4357     3.7986     1.1546 C.3     
  30 C30            4.8924     5.1956     0.7175 C.3     
  31 C31            3.9773     6.2521     1.3428 C.3     
  32 C32            2.5919     6.1791     0.6885 C.3     
  33 N33           -8.9224     2.4628     9.3047 N.1     
  34 H34           -0.7889    -1.3789     0.3793 H       
  35 H35           -1.6565     3.4875     0.3365 H       
  36 H36            1.7433     0.0171     1.7000 H       
  37 H37            1.5455    -0.9484     0.2177 H       
  38 H38            2.1688     0.7160     0.1192 H       
  39 H39           -3.7431    -1.1364     1.0843 H       
  40 H40           -4.2373    -0.3464    -0.4322 H       
  41 H41           -3.0784    -1.6969    -0.4688 H       
  42 H42           -5.8615     4.3675     0.6978 H       
  43 H43           -6.3260     2.7549     0.0971 H       
  44 H44           -2.6345     2.8452     2.0903 H       
  45 H45           -3.4521     4.4264     1.9988 H       
  46 H46           -4.3894     1.9750     3.5599 H       
  47 H47           -3.7690     3.4972     4.2444 H       
  48 H48           -5.6648     4.7251     3.1997 H       
  49 H49           -7.5287     3.4069     2.2099 H       
  50 H50           -6.5622     1.9224     2.3906 H       
  51 H51           -6.7146     5.4640     5.1058 H       
  52 H52           -7.8629     5.0488     7.2408 H       
  53 H53           -7.4334     0.8250     6.6270 H       
  54 H54           -6.2925     1.2630     4.4926 H       
  55 H55            0.0790     4.7739     0.3307 H       
  56 H56            4.6434     3.6598     2.2155 H       
  57 H57            4.9639     3.0417     0.5746 H       
  58 H58            5.9178     5.3622     1.0474 H       
  59 H59            4.8439     5.2702    -0.3688 H       
  60 H60            3.8844     6.0652     2.4126 H       
  61 H61            4.4031     7.2426     1.1824 H       
  62 H62            2.6518     6.5377    -0.3390 H       
  63 H63            1.8874     6.7916     1.2512 H       
@<TRIPOS>BOND
   1    1    2 ar
   2    1   24 1
   3    1    6 ar
   4    2    3 ar
   5    2    8 1
   6    3    4 ar
   7    3   34 1
   8    4    5 ar
   9    4    9 1
  10    5    6 ar
  11    5    7 1
  12    6   35 1
  13    7   10 am
  14    7   11 2
  15    8   36 1
  16    8   37 1
  17    8   38 1
  18    9   39 1
  19    9   40 1
  20    9   41 1
  21   10   12 1
  22   10   13 1
  23   12   16 1
  24   12   42 1
  25   12   43 1
  26   13   14 1
  27   13   44 1
  28   13   45 1
  29   14   15 1
  30   14   46 1
  31   14   47 1
  32   15   16 1
  33   15   17 1
  34   15   48 1
  35   16   49 1
  36   16   50 1
  37   17   18 ar
  38   17   22 ar
  39   18   19 ar
  40   18   51 1
  41   19   20 ar
  42   19   52 1
  43   20   21 ar
  44   20   23 1
  45   21   22 ar
  46   21   53 1
  47   22   54 1
  48   23   33 3
  49   24   25 2
  50   24   28 1
  51   25   26 1
  52   26   27 2
  53   26   29 1
  54   27   28 1
  55   27   32 1
  56   28   55 1
  57   29   30 1
  58   29   56 1
  59   29   57 1
  60   30   31 1
  61   30   58 1
  62   30   59 1
  63   31   32 1
  64   31   60 1
  65   31   61 1
  66   32   62 1
  67   32   63 1

#	End of record

