#	Name: ASD00844796
#	Creating user name:	WinNT
#	Creation time:	15. 06. 2019 18:51

#	Modifying user name:	WinNT
#	Modification time:	15. 06. 2019 18:51

#	Program:	/corina/corina34_cracker 3.40 0067  02.08.2006

@<TRIPOS>MOLECULE
ASD00844796
  94   99    0    0    0
SMALL
NO_CHARGES


@<TRIPOS>ATOM
   1 F1             5.6881    -2.1913    -1.9601 F       
   2 C2             0.7394     1.2424    -0.3676 C.ar    
   3 C3             0.9806    -0.0955    -0.6429 C.ar    
   4 C4             0.8535    -1.0423     0.3634 C.ar    
   5 C5             0.4873    -0.6507     1.6363 C.ar    
   6 C6             0.2469     0.6837     1.9081 C.ar    
   7 C7             0.3733     1.6291     0.9074 C.ar    
   8 C8             1.1143    -2.4968     0.0676 C.3     
   9 C9             0.7836    -3.3507     1.2731 C.2     
  10 C10            0.3032    -2.9490    -1.1483 C.3     
  11 C11           -1.1562    -2.6529    -0.9169 C.2     
  12 N12           -2.0769    -3.0613    -1.8125 N.am    
  13 O13           -1.5022    -2.0473     0.0752 O.2     
  14 C14           -3.4883    -2.6825    -1.6608 C.3     
  15 C15           -4.3457    -3.9516    -1.6937 C.3     
  16 C16           -4.0394    -4.7364    -2.9714 C.3     
  17 C17           -2.5656    -5.1488    -2.9778 C.3     
  18 C18           -1.6872    -3.8886    -2.9625 C.3     
  19 N19           -4.8839    -5.9373    -3.0224 N.3     
  20 C20           -4.7032    -6.6545    -4.2923 C.3     
  21 C21           -5.5373    -7.9377    -4.2735 C.3     
  22 N22           -6.9509    -7.5968    -4.0610 N.3     
  23 C23           -7.1316    -6.8795    -2.7911 C.3     
  24 C24           -6.2975    -5.5964    -2.8099 C.3     
  25 C25           -7.7954    -8.7977    -4.1120 C.3     
  26 O26           -0.3025    -3.4609     1.8016 O.2     
  27 N27            1.9189    -3.9643     1.6470 N.am    
  28 C28            2.5897    -2.7349    -0.1582 C.ar    
  29 C29            2.9976    -3.6245     0.8278 C.ar    
  30 C30            3.4830    -2.2550    -1.0893 C.ar    
  31 C31            4.8078    -2.6600    -1.0488 C.ar    
  32 C32            5.2264    -3.5469    -0.0699 C.ar    
  33 C33            4.3304    -4.0282     0.8639 C.ar    
  34 Cl34           6.8854    -4.0554    -0.0173 Cl      
  35 C35            1.6972    -6.6231     2.3223 C.ar    
  36 C36            0.4429    -6.9327     1.8174 C.ar    
  37 C37            2.6895    -7.5843     2.3415 C.ar    
  38 C38            2.4332    -8.8537     1.8575 C.ar    
  39 C39            1.1836    -9.1649     1.3536 C.ar    
  40 C40            0.1881    -8.2077     1.3327 C.ar    
  41 H41            0.9859   -10.1573     0.9761 H       
  42 O42           -0.5350    -5.9892     1.7979 O.3     
  43 C43           -1.8018    -6.3787     1.2637 C.3     
  44 C44           -9.2093    -8.4472    -3.6440 C.3     
  45 C45          -10.0889    -9.6980    -3.6972 C.3     
  46 O46            1.3404    -0.4784    -1.8962 O.3     
  47 C47            1.3731     0.5376    -2.9007 C.3     
  48 C48            1.8818    -0.0600    -4.2141 C.3     
  49 F49            3.1326    -0.6505    -4.0042 F       
  50 F50            0.9790    -1.0282    -4.6665 F       
  51 S51            2.0269    -5.0032     2.9321 S.o2    
  52 O52            3.3882    -4.9972     3.3397 O.2     
  53 O53            0.9532    -4.6763     3.8037 O.2     
  54 H54            0.8420     1.9819    -1.1481 H       
  55 H55            0.3882    -1.3873     2.4199 H       
  56 H56           -0.0400     0.9879     2.9039 H       
  57 H57            0.1850     2.6706     1.1221 H       
  58 H58            0.6466    -2.4137    -2.0336 H       
  59 H59            0.4375    -4.0204    -1.2967 H       
  60 H60           -3.6291    -2.1711    -0.7085 H       
  61 H61           -3.7798    -2.0234    -2.4785 H       
  62 H62           -4.1167    -4.5680    -0.8244 H       
  63 H63           -5.4008    -3.6784    -1.6787 H       
  64 H64           -4.2452    -4.1107    -3.8399 H       
  65 H65           -2.3534    -5.7539    -2.0964 H       
  66 H66           -2.3538    -5.7276    -3.8768 H       
  67 H67           -1.8330    -3.3303    -3.8872 H       
  68 H68           -0.6397    -4.1745    -2.8671 H       
  69 H69           -5.0290    -6.0211    -5.1173 H       
  70 H70           -3.6507    -6.9069    -4.4208 H       
  71 H71           -5.4276    -8.4567    -5.2256 H       
  72 H72           -5.1934    -8.5831    -3.4653 H       
  73 H73           -8.1842    -6.6272    -2.6626 H       
  74 H74           -6.8058    -7.5130    -1.9661 H       
  75 H75           -6.4073    -5.0774    -1.8578 H       
  76 H76           -6.6414    -4.9509    -3.6181 H       
  77 H77           -7.8337    -9.1718    -5.1351 H       
  78 H78           -7.3766    -9.5644    -3.4603 H       
  79 H79            3.1518    -1.5642    -1.8505 H       
  80 H80            4.6635    -4.7193     1.6240 H       
  81 H81            3.6662    -7.3437     2.7345 H       
  82 H82            3.2104    -9.6035     1.8727 H       
  83 H83           -0.7879    -8.4514     0.9397 H       
  84 H84           -2.4896    -5.5342     1.3071 H       
  85 H85           -1.6779    -6.6935     0.2276 H       
  86 H86           -2.2043    -7.2054     1.8490 H       
  87 H87           -9.1711    -8.0732    -2.6209 H       
  88 H88           -9.6282    -7.6805    -4.2958 H       
  89 H89          -11.0961    -9.4483    -3.3638 H       
  90 H90          -10.1271   -10.0721    -4.7203 H       
  91 H91           -9.6700   -10.4647    -3.0454 H       
  92 H92            0.3691     0.9358    -3.0475 H       
  93 H93            2.0396     1.3399    -2.5843 H       
  94 H94            1.9731     0.7288    -4.9608 H       
@<TRIPOS>BOND
   1    1   31 1
   2    2    3 ar
   3    2    7 ar
   4    2   54 1
   5    3    4 ar
   6    3   46 1
   7    4    5 ar
   8    4    8 1
   9    5    6 ar
  10    5   55 1
  11    6    7 ar
  12    6   56 1
  13    7   57 1
  14    8    9 1
  15    8   10 1
  16    8   28 1
  17    9   26 2
  18    9   27 am
  19   10   11 1
  20   10   58 1
  21   10   59 1
  22   11   12 am
  23   11   13 2
  24   12   14 1
  25   12   18 1
  26   14   15 1
  27   14   60 1
  28   14   61 1
  29   15   16 1
  30   15   62 1
  31   15   63 1
  32   16   17 1
  33   16   19 1
  34   16   64 1
  35   17   18 1
  36   17   65 1
  37   17   66 1
  38   18   67 1
  39   18   68 1
  40   19   20 1
  41   19   24 1
  42   20   21 1
  43   20   69 1
  44   20   70 1
  45   21   22 1
  46   21   71 1
  47   21   72 1
  48   22   23 1
  49   22   25 1
  50   23   24 1
  51   23   73 1
  52   23   74 1
  53   24   75 1
  54   24   76 1
  55   25   44 1
  56   25   77 1
  57   25   78 1
  58   27   51 am
  59   27   29 1
  60   28   29 ar
  61   28   30 ar
  62   29   33 ar
  63   30   31 ar
  64   30   79 1
  65   31   32 ar
  66   32   33 ar
  67   32   34 1
  68   33   80 1
  69   35   36 ar
  70   35   37 ar
  71   35   51 1
  72   36   42 1
  73   36   40 ar
  74   37   38 ar
  75   37   81 1
  76   38   39 ar
  77   38   82 1
  78   39   40 ar
  79   39   41 1
  80   40   83 1
  81   42   43 1
  82   43   84 1
  83   43   85 1
  84   43   86 1
  85   44   45 1
  86   44   87 1
  87   44   88 1
  88   45   89 1
  89   45   90 1
  90   45   91 1
  91   46   47 1
  92   47   48 1
  93   47   92 1
  94   47   93 1
  95   48   49 1
  96   48   50 1
  97   48   94 1
  98   51   52 2
  99   51   53 2

#	End of record

