#	Name: ASD01883236
#	Creating user name:	WinNT
#	Creation time:	15. 06. 2019 19:46

#	Modifying user name:	WinNT
#	Modification time:	15. 06. 2019 19:46

#	Program:	/corina/corina34_cracker 3.40 0067  02.08.2006

@<TRIPOS>MOLECULE
ASD01883236
  48   51    0    0    0
SMALL
NO_CHARGES


@<TRIPOS>ATOM
   1 C1            -0.1564     1.2081     0.0612 C.2     
   2 C2             0.0071    -0.2575     0.0484 C.ar    
   3 C3             1.3068    -0.7902     0.0044 C.ar    
   4 N4             2.4018     0.0490    -0.0265 N.pl3   
   5 C5             2.2918     1.3863    -0.0165 C.2     
   6 C6             1.0684     2.0225     0.0266 C.2     
   7 C7             3.6755    -0.5161    -0.0694 C.2     
   8 C8            -1.0985    -1.1069     0.0796 C.ar    
   9 C9            -0.9090    -2.4714     0.0669 C.ar    
  10 C10            0.3732    -2.9994     0.0239 C.ar    
  11 C11            1.4745    -2.1720    -0.0082 C.ar    
  12 O12           -1.2604     1.7233     0.0940 O.2     
  13 C13            0.9898     3.4917     0.0362 C.2     
  14 O14            2.0066     4.1547     0.1151 O.2     
  15 N15           -0.2088     4.1030    -0.0423 N.am    
  16 C16           -2.0998    -3.3944     0.1004 C.3     
  17 C17           -2.5488    -3.6998    -1.3300 C.3     
  18 C18           -3.7395    -4.6229    -1.2964 C.ar    
  19 N19           -6.0502    -4.9578    -1.2244 N.ar    
  20 C20           -5.8522    -6.2607    -1.2370 C.ar    
  21 N21           -4.6405    -6.7779    -1.2726 N.ar    
  22 C22           -3.5714    -5.9986    -1.3027 C.ar    
  23 C23           -5.0290    -4.1166    -1.2528 C.ar    
  24 C24           -7.0430    -7.1838    -1.2036 C.3     
  25 C25            4.5783    -0.4361    -1.0828 C.2     
  26 C26            5.7631    -1.0961    -0.8481 C.2     
  27 N27            5.8812    -1.7085     0.2939 N.2     
  28 S28            4.4404    -1.4559     1.1521 S.3     
  29 C29            6.8729    -1.1091    -1.8675 C.3     
  30 H30            3.1907     1.9844    -0.0422 H       
  31 H31           -2.0973    -0.6975     0.1138 H       
  32 H32            0.5096    -4.0708     0.0150 H       
  33 H33            2.4675    -2.5954    -0.0415 H       
  34 H34           -1.0121     3.5786    -0.1860 H       
  35 H35           -0.2681     5.0672     0.0448 H       
  36 H36           -1.8257    -4.3230     0.6013 H       
  37 H37           -2.9152    -2.9160     0.6429 H       
  38 H38           -2.8228    -2.7713    -1.8308 H       
  39 H39           -1.7333    -4.1783    -1.8724 H       
  40 H40           -2.5812    -6.4289    -1.3322 H       
  41 H41           -5.1980    -3.0500    -1.2419 H       
  42 H42           -7.3628    -7.4013    -2.2226 H       
  43 H43           -6.7689    -8.1123    -0.7028 H       
  44 H44           -7.8584    -6.7054    -0.6611 H       
  45 H45            4.3814     0.1016    -1.9985 H       
  46 H46            7.5333    -0.2589    -1.6966 H       
  47 H47            7.4409    -2.0348    -1.7743 H       
  48 H48            6.4473    -1.0431    -2.8688 H       
@<TRIPOS>BOND
   1    1    2 1
   2    1    6 1
   3    1   12 2
   4    2    3 ar
   5    2    8 ar
   6    3    4 1
   7    3   11 ar
   8    4    5 1
   9    4    7 1
  10    5    6 2
  11    5   30 1
  12    6   13 1
  13    7   25 2
  14    7   28 1
  15    8    9 ar
  16    8   31 1
  17    9   10 ar
  18    9   16 1
  19   10   11 ar
  20   10   32 1
  21   11   33 1
  22   13   14 2
  23   13   15 am
  24   15   34 1
  25   15   35 1
  26   16   17 1
  27   16   36 1
  28   16   37 1
  29   17   18 1
  30   17   38 1
  31   17   39 1
  32   18   23 ar
  33   18   22 ar
  34   19   20 ar
  35   19   23 ar
  36   20   21 ar
  37   20   24 1
  38   21   22 ar
  39   22   40 1
  40   23   41 1
  41   24   42 1
  42   24   43 1
  43   24   44 1
  44   25   26 1
  45   25   45 1
  46   26   27 2
  47   26   29 1
  48   27   28 1
  49   29   46 1
  50   29   47 1
  51   29   48 1

#	End of record

