#	Name: ASD02500105
#	Creating user name:	WinNT
#	Creation time:	15. 06. 2019 20:22

#	Modifying user name:	WinNT
#	Modification time:	15. 06. 2019 20:22

#	Program:	/corina/corina34_cracker 3.40 0067  02.08.2006

@<TRIPOS>MOLECULE
ASD02500105
  61   65    0    0    0
SMALL
NO_CHARGES


@<TRIPOS>ATOM
   1 N1            -3.4759     5.5068     0.1181 N.ar    
   2 C2            -4.6175     6.1316    -0.0388 C.ar    
   3 C3            -5.7133     5.8739     0.7823 C.ar    
   4 C4            -5.6134     4.9487     1.7819 C.ar    
   5 C5            -4.3860     4.2793     1.9472 C.ar    
   6 C6            -4.2081     3.3161     2.9529 C.ar    
   7 C7            -3.0051     2.6909     3.0806 C.ar    
   8 C8            -1.9474     2.9947     2.2264 C.ar    
   9 C9            -2.0850     3.9231     1.2407 C.ar    
  10 C10           -3.3115     4.5900     1.0771 C.ar    
  11 S11           -0.7306     4.2885     0.1745 S.o2    
  12 O12           -0.6249     5.7049     0.1310 O.2     
  13 O13            0.3369     3.4415     0.5773 O.2     
  14 N14           -1.1620     3.8048    -1.3494 N.am    
  15 C15           -1.3868     2.4583    -1.6138 C.ar    
  16 C16           -2.5146     2.0704    -2.3320 C.ar    
  17 C17           -2.7399     0.7386    -2.5953 C.ar    
  18 C18           -1.8350    -0.2251    -2.1408 C.ar    
  19 C19           -0.7035     0.1677    -1.4199 C.ar    
  20 C20           -0.4808     1.5015    -1.1647 C.ar    
  21 C21           -2.0738    -1.6536    -2.4210 C.2     
  22 O22           -1.1478    -2.3732    -2.7426 O.2     
  23 N23           -3.3182    -2.1612    -2.3204 N.am    
  24 C24           -3.5006    -3.5469    -2.4789 C.3     
  25 C25           -4.4816    -3.8356    -3.6435 C.3     
  26 N26           -5.8192    -3.4774    -3.2181 N.3     
  27 C27           -6.2514    -2.1117    -3.5809 C.3     
  28 C28           -5.1776    -1.0491    -3.3526 C.3     
  29 C29           -4.4416    -1.2435    -2.0416 C.3     
  30 C30           -6.7510    -4.4269    -3.6438 C.ar    
  31 C31           -6.5905    -5.7630    -3.2992 C.ar    
  32 C32           -7.5139    -6.6991    -3.7214 C.ar    
  33 C33           -8.5974    -6.3077    -4.4864 C.ar    
  34 C34           -8.7601    -4.9785    -4.8313 C.ar    
  35 C35           -7.8433    -4.0364    -4.4080 C.ar    
  36 H36           -4.7111     6.8659    -0.8252 H       
  37 H37           -6.6407     6.4055     0.6286 H       
  38 H38           -6.4526     4.7367     2.4278 H       
  39 H39           -5.0205     3.0727     3.6216 H       
  40 H40           -2.8692     1.9501     3.8546 H       
  41 H41           -1.0028     2.4855     2.3485 H       
  42 H42           -1.2578     4.4607    -2.0575 H       
  43 H43           -3.2135     2.8153    -2.6826 H       
  44 H44           -3.6151     0.4382    -3.1523 H       
  45 H45           -0.0027    -0.5746    -1.0671 H       
  46 H46            0.3956     1.8059    -0.6119 H       
  47 H47           -2.5395    -4.0139    -2.6939 H       
  48 H48           -3.9045    -3.9644    -1.5565 H       
  49 H49           -4.2025    -3.2410    -4.5134 H       
  50 H50           -4.4491    -4.8956    -3.8954 H       
  51 H51           -6.5320    -2.1031    -4.6341 H       
  52 H52           -7.1285    -1.8543    -2.9872 H       
  53 H53           -4.4595    -1.0915    -4.1716 H       
  54 H54           -5.6489    -0.0663    -3.3497 H       
  55 H55           -5.1080    -1.6850    -1.3006 H       
  56 H56           -4.0611    -0.2884    -1.6795 H       
  57 H57           -5.7444    -6.0693    -2.7020 H       
  58 H58           -7.3896    -7.7381    -3.4540 H       
  59 H59           -9.3178    -7.0419    -4.8156 H       
  60 H60           -9.6074    -4.6762    -5.4289 H       
  61 H61           -7.9734    -2.9978    -4.6740 H       
@<TRIPOS>BOND
   1    1    2 ar
   2    1   10 ar
   3    2    3 ar
   4    2   36 1
   5    3    4 ar
   6    3   37 1
   7    4    5 ar
   8    4   38 1
   9    5    6 ar
  10    5   10 ar
  11    6    7 ar
  12    6   39 1
  13    7    8 ar
  14    7   40 1
  15    8    9 ar
  16    8   41 1
  17    9   10 ar
  18    9   11 1
  19   11   12 2
  20   11   13 2
  21   11   14 am
  22   14   15 1
  23   14   42 1
  24   15   16 ar
  25   15   20 ar
  26   16   17 ar
  27   16   43 1
  28   17   18 ar
  29   17   44 1
  30   18   19 ar
  31   18   21 1
  32   19   20 ar
  33   19   45 1
  34   20   46 1
  35   21   22 2
  36   21   23 am
  37   23   24 1
  38   23   29 1
  39   24   25 1
  40   24   47 1
  41   24   48 1
  42   25   26 1
  43   25   49 1
  44   25   50 1
  45   26   27 1
  46   26   30 1
  47   27   28 1
  48   27   51 1
  49   27   52 1
  50   28   29 1
  51   28   53 1
  52   28   54 1
  53   29   55 1
  54   29   56 1
  55   30   31 ar
  56   30   35 ar
  57   31   32 ar
  58   31   57 1
  59   32   33 ar
  60   32   58 1
  61   33   34 ar
  62   33   59 1
  63   34   35 ar
  64   34   60 1
  65   35   61 1

#	End of record

