#	Name: ASD04882383
#	Creating user name:	WinNT
#	Creation time:	15. 06. 2019 20:54

#	Modifying user name:	WinNT
#	Modification time:	15. 06. 2019 20:54

#	Program:	/corina/corina34_cracker 3.40 0067  02.08.2006

@<TRIPOS>MOLECULE
ASD04882383
  78   83    0    0    0
SMALL
NO_CHARGES


@<TRIPOS>ATOM
   1 N1             0.0153     1.2656     0.4474 N.am    
   2 C2            -0.0134    -0.1219     0.2561 C.ar    
   3 C3            -1.2375    -0.7887     0.1542 C.ar    
   4 C4            -1.2674    -2.1655    -0.0361 C.ar    
   5 C5            -0.0917    -2.8773    -0.1244 C.ar    
   6 C6             1.1359    -2.2167    -0.0233 C.ar    
   7 C7             1.1688    -0.8318     0.1623 C.ar    
   8 N8            -2.4287    -0.0731     0.2438 N.3     
   9 C9            -3.2251    -0.2205    -0.9824 C.3     
  10 C10           -3.2025    -0.4842     1.4236 C.3     
  11 C11           -4.4623     0.3784     1.5300 C.3     
  12 N12           -5.2587     0.2310     0.3038 N.3     
  13 C13           -4.4849     0.6421    -0.8760 C.3     
  14 C14            2.3951    -2.9794    -0.1180 C.2     
  15 O15            3.3026    -2.5705    -0.8165 O.2     
  16 C16            1.0763     1.9822     0.0262 C.2     
  17 C17            1.0658     3.4439     0.1407 C.2     
  18 O18            2.0431     1.4159    -0.4493 O.2     
  19 C19           -6.4536     0.9488     0.3937 C.ar    
  20 C20           -7.6714     0.2887     0.2928 C.ar    
  21 C21           -6.4266     2.3239     0.5900 C.ar    
  22 C22           -7.6096     3.0305     0.6784 C.ar    
  23 C23           -8.8206     2.3707     0.5722 C.ar    
  24 C24           -8.8511     1.0016     0.3821 C.ar    
  25 O25            0.0636     4.1924     0.6462 O.3     
  26 C26            2.0713     4.2859    -0.2402 C.2     
  27 C27            1.6380     5.5891     0.0501 C.2     
  28 C28            0.4042     5.4866     0.5916 C.2     
  29 N29            2.5397    -4.1295     0.5696 N.am    
  30 C30           -7.7056    -1.2036     0.0855 C.3     
  31 C31            3.8191    -4.8518     0.5598 C.3     
  32 C32            1.4227    -4.6817     1.3482 C.3     
  33 C33            1.8957    -4.9249     2.7848 C.3     
  34 C34            3.1447    -5.8091     2.7636 C.3     
  35 C35            4.2603    -5.0928     2.0069 C.3     
  36 N36            3.5807    -6.0710     4.1374 N.am    
  37 C37            3.9388    -5.1173     5.0144 C.2     
  38 C38            3.6766    -7.4080     4.7351 C.3     
  39 C39            4.5655    -7.2371     5.9869 C.3     
  40 C40            4.3403    -5.7453     6.3308 C.3     
  41 O41            3.9403    -3.9267     4.7836 O.2     
  42 H42           -0.7302     1.7112     0.8794 H       
  43 H43           -2.2148    -2.6781    -0.1145 H       
  44 H44           -0.1183    -3.9469    -0.2716 H       
  45 H45            2.1159    -0.3186     0.2408 H       
  46 H46           -2.6350     0.1019    -1.8402 H       
  47 H47           -3.5093    -1.2653    -1.1080 H       
  48 H48           -3.4864    -1.5319     1.3253 H       
  49 H49           -2.5959    -0.3540     2.3198 H       
  50 H50           -5.0524     0.0560     2.3879 H       
  51 H51           -4.1781     1.4232     1.6557 H       
  52 H52           -4.2010     1.6899    -0.7776 H       
  53 H53           -5.0915     0.5119    -1.7722 H       
  54 H54           -5.4813     2.8396     0.6738 H       
  55 H55           -7.5894     4.0995     0.8310 H       
  56 H56           -9.7444     2.9257     0.6424 H       
  57 H57           -9.7983     0.4894     0.2995 H       
  58 H58            3.0167     4.0037    -0.6794 H       
  59 H59            2.1884     6.5018    -0.1241 H       
  60 H60           -0.2068     6.3124     0.9251 H       
  61 H61           -7.7217    -1.7046     1.0534 H       
  62 H62           -8.5997    -1.4718    -0.4774 H       
  63 H63           -6.8202    -1.5138    -0.4694 H       
  64 H64            3.6950    -5.8080     0.0516 H       
  65 H65            4.5712    -4.2558     0.0429 H       
  66 H66            0.5941    -3.9735     1.3513 H       
  67 H67            1.0992    -5.6238     0.9056 H       
  68 H68            2.1331    -3.9711     3.2561 H       
  69 H69            1.1068    -5.4232     3.3482 H       
  70 H70            2.9131    -6.7529     2.2701 H       
  71 H71            5.1579    -5.7112     2.0110 H       
  72 H72            4.4730    -4.1389     2.4895 H       
  73 H73            2.6872    -7.7652     5.0209 H       
  74 H74            4.1411    -8.1019     4.0345 H       
  75 H75            4.2234    -7.8789     6.7988 H       
  76 H76            5.6118    -7.4321     5.7519 H       
  77 H77            5.2614    -5.2963     6.7026 H       
  78 H78            3.5403    -5.6393     7.0635 H       
@<TRIPOS>BOND
   1    1    2 1
   2    1   16 am
   3    1   42 1
   4    2    3 ar
   5    2    7 ar
   6    3    4 ar
   7    3    8 1
   8    4    5 ar
   9    4   43 1
  10    5    6 ar
  11    5   44 1
  12    6    7 ar
  13    6   14 1
  14    7   45 1
  15    8    9 1
  16    8   10 1
  17    9   13 1
  18    9   46 1
  19    9   47 1
  20   10   11 1
  21   10   48 1
  22   10   49 1
  23   11   12 1
  24   11   50 1
  25   11   51 1
  26   12   13 1
  27   12   19 1
  28   13   52 1
  29   13   53 1
  30   14   15 2
  31   14   29 am
  32   16   18 2
  33   16   17 1
  34   17   25 1
  35   17   26 2
  36   19   20 ar
  37   19   21 ar
  38   20   30 1
  39   20   24 ar
  40   21   22 ar
  41   21   54 1
  42   22   23 ar
  43   22   55 1
  44   23   24 ar
  45   23   56 1
  46   24   57 1
  47   25   28 1
  48   26   27 1
  49   26   58 1
  50   27   28 2
  51   27   59 1
  52   28   60 1
  53   29   31 1
  54   29   32 1
  55   30   61 1
  56   30   62 1
  57   30   63 1
  58   31   35 1
  59   31   64 1
  60   31   65 1
  61   32   33 1
  62   32   66 1
  63   32   67 1
  64   33   34 1
  65   33   68 1
  66   33   69 1
  67   34   35 1
  68   34   36 1
  69   34   70 1
  70   35   71 1
  71   35   72 1
  72   36   37 am
  73   36   38 1
  74   37   41 2
  75   37   40 1
  76   38   39 1
  77   38   73 1
  78   38   74 1
  79   39   40 1
  80   39   75 1
  81   39   76 1
  82   40   77 1
  83   40   78 1

#	End of record

