#	Name: ASD01910857
#	Creating user name:	WinNT
#	Creation time:	15. 06. 2019 19:56

#	Modifying user name:	WinNT
#	Modification time:	15. 06. 2019 19:56

#	Program:	/corina/corina34_cracker 3.40 0067  02.08.2006

@<TRIPOS>MOLECULE
ASD01910857
  53   56    0    0    0
SMALL
NO_CHARGES


@<TRIPOS>ATOM
   1 C1            -0.0168     1.3842     0.0097 C.ar    
   2 C2             0.0021    -0.0041     0.0020 C.ar    
   3 C3             1.2266    -0.6477    -0.0131 C.ar    
   4 C4             2.3908     0.1134    -0.0202 C.ar    
   5 N5             2.3311     1.4363    -0.0120 N.ar    
   6 C6             1.1776     2.0767     0.0020 C.ar    
   7 N7             3.6279    -0.5202    -0.0354 N.3     
   8 C8             4.7221     0.4608    -0.0406 C.3     
   9 C9             6.0630    -0.2742     0.0230 C.3     
  10 N10            6.1729    -1.1874    -1.1231 N.3     
  11 C11            5.0788    -2.1685    -1.1179 C.3     
  12 C12            3.7378    -1.4334    -1.1815 C.3     
  13 C13            7.4803    -1.8571    -1.1392 C.3     
  14 C14            7.4693    -2.9558    -2.1705 C.ar    
  15 C15            7.8508    -2.6844    -3.4721 C.ar    
  16 C16            7.8430    -3.6875    -4.4251 C.ar    
  17 C17            7.4546    -4.9660    -4.0820 C.ar    
  18 C18            7.0690    -5.2465    -2.7704 C.ar    
  19 C19            7.0841    -4.2318    -1.8131 C.ar    
  20 C20            6.6648    -6.5715    -2.4076 C.1     
  21 C21            6.3334    -7.6578    -2.1101 C.1     
  22 C22            5.9179    -9.0197    -1.7371 C.3     
  23 C23            5.5550    -9.0515    -0.2747 C.ar    
  24 C24            4.2553    -8.7957     0.1206 C.ar    
  25 C25            3.9225    -8.8247     1.4620 C.ar    
  26 C26            4.8892    -9.1100     2.4080 C.ar    
  27 C27            6.1887    -9.3667     2.0126 C.ar    
  28 C28            6.5206    -9.3419     0.6709 C.ar    
  29 H29           -0.9562     1.9169     0.0170 H       
  30 H30           -0.9185    -0.5688     0.0081 H       
  31 H31            1.2778    -1.7264    -0.0191 H       
  32 H32            1.1676     3.1567     0.0082 H       
  33 H33            4.6750     1.0532    -0.9543 H       
  34 H34            4.6259     1.1174     0.8242 H       
  35 H35            6.8767     0.4503    -0.0099 H       
  36 H36            6.1212    -0.8451     0.9497 H       
  37 H37            5.1749    -2.8250    -1.9827 H       
  38 H38            5.1258    -2.7608    -0.2041 H       
  39 H39            2.9241    -2.1579    -1.1485 H       
  40 H40            3.6796    -0.8626    -2.1082 H       
  41 H41            8.2563    -1.1331    -1.3878 H       
  42 H42            7.6824    -2.2832    -0.1565 H       
  43 H43            8.1556    -1.6852    -3.7458 H       
  44 H44            8.1413    -3.4691    -5.4399 H       
  45 H45            7.4486    -5.7480    -4.8269 H       
  46 H46            6.7868    -4.4425    -0.7964 H       
  47 H47            5.0528    -9.3116    -2.3325 H       
  48 H48            6.7377    -9.7135    -1.9231 H       
  49 H49            3.5000    -8.5728    -0.6185 H       
  50 H50            2.9072    -8.6242     1.7709 H       
  51 H51            4.6294    -9.1320     3.4560 H       
  52 H52            6.9441    -9.5892     2.7517 H       
  53 H53            7.5359    -9.5424     0.3619 H       
@<TRIPOS>BOND
   1    1    2 ar
   2    1    6 ar
   3    1   29 1
   4    2    3 ar
   5    2   30 1
   6    3    4 ar
   7    3   31 1
   8    4    5 ar
   9    4    7 1
  10    5    6 ar
  11    6   32 1
  12    7    8 1
  13    7   12 1
  14    8    9 1
  15    8   33 1
  16    8   34 1
  17    9   10 1
  18    9   35 1
  19    9   36 1
  20   10   11 1
  21   10   13 1
  22   11   12 1
  23   11   37 1
  24   11   38 1
  25   12   39 1
  26   12   40 1
  27   13   14 1
  28   13   41 1
  29   13   42 1
  30   14   15 ar
  31   14   19 ar
  32   15   16 ar
  33   15   43 1
  34   16   17 ar
  35   16   44 1
  36   17   18 ar
  37   17   45 1
  38   18   19 ar
  39   18   20 1
  40   19   46 1
  41   20   21 3
  42   21   22 1
  43   22   23 1
  44   22   47 1
  45   22   48 1
  46   23   24 ar
  47   23   28 ar
  48   24   25 ar
  49   24   49 1
  50   25   26 ar
  51   25   50 1
  52   26   27 ar
  53   26   51 1
  54   27   28 ar
  55   27   52 1
  56   28   53 1

#	End of record

