#	Name: ASD01901301
#	Creating user name:	WinNT
#	Creation time:	15. 06. 2019 19:53

#	Modifying user name:	WinNT
#	Modification time:	15. 06. 2019 19:53

#	Program:	/corina/corina34_cracker 3.40 0067  02.08.2006

@<TRIPOS>MOLECULE
ASD01901301
  41   45    0    0    0
SMALL
NO_CHARGES


@<TRIPOS>ATOM
   1 C1             0.0890     1.3441    -0.0629 C.ar    
   2 C2             0.1469    -0.0334    -0.1171 C.ar    
   3 C3             1.3698    -0.6743    -0.2049 C.ar    
   4 C4             2.5415     0.0606    -0.2384 C.ar    
   5 C5             2.4966     1.4387    -0.1843 C.ar    
   6 C6             1.2667     2.0905    -0.0967 C.ar    
   7 C7             1.2115     3.5696    -0.0394 C.ar    
   8 C8             0.2739     5.5641    -0.7024 C.ar    
   9 N9             0.3203     4.2285    -0.7571 N.ar    
  10 C10            2.1397     4.3067     0.8169 C.ar    
  11 N11            2.0820     5.6266     0.8607 N.ar    
  12 C12            1.1775     6.2798     0.1237 C.ar    
  13 C13           -0.7086     7.6340    -1.3998 C.ar    
  14 C14           -0.6720     6.2752    -1.4633 C.ar    
  15 C15            1.1075     7.6847     0.1631 C.ar    
  16 C16            0.1791     8.3374    -0.5876 C.ar    
  17 C17            3.1374     3.5793     1.6300 C.ar    
  18 C18            2.7390     2.5579     2.4763 C.ar    
  19 C19            3.6694     1.8682     3.2447 C.ar    
  20 C20            4.9955     2.1765     3.1867 C.ar    
  21 C21            5.4422     3.2056     2.3414 C.ar    
  22 C22            4.5113     3.9166     1.5466 C.ar    
  23 N23            4.9326     4.8909     0.7386 N.ar    
  24 C24            6.8062     3.5455     2.2614 C.ar    
  25 C25            7.1702     4.5567     1.4180 C.ar    
  26 C26            6.2029     5.2078     0.6564 C.ar    
  27 H27           -0.8665     1.8435     0.0011 H       
  28 H28           -0.7643    -0.6126    -0.0907 H       
  29 H29            1.4101    -1.7527    -0.2471 H       
  30 H30            3.4932    -0.4453    -0.3066 H       
  31 H31            3.4119     2.0113    -0.2098 H       
  32 H32           -1.4365     8.1750    -1.9862 H       
  33 H33           -1.3664     5.7440    -2.0974 H       
  34 H34            1.7887     8.2434     0.7877 H       
  35 H35            0.1296     9.4157    -0.5537 H       
  36 H36            1.6935     2.2946     2.5401 H       
  37 H37            3.3360     1.0757     3.8983 H       
  38 H38            5.7036     1.6293     3.7914 H       
  39 H39            7.5442     3.0215     2.8506 H       
  40 H40            8.2082     4.8425     1.3328 H       
  41 H41            6.5049     6.0024    -0.0098 H       
@<TRIPOS>BOND
   1    1    2 ar
   2    1    6 ar
   3    1   27 1
   4    2    3 ar
   5    2   28 1
   6    3    4 ar
   7    3   29 1
   8    4    5 ar
   9    4   30 1
  10    5    6 ar
  11    5   31 1
  12    6    7 1
  13    7   10 ar
  14    7    9 ar
  15    8    9 ar
  16    8   12 ar
  17    8   14 ar
  18   10   11 ar
  19   10   17 1
  20   11   12 ar
  21   12   15 ar
  22   13   14 ar
  23   13   16 ar
  24   13   32 1
  25   14   33 1
  26   15   16 ar
  27   15   34 1
  28   16   35 1
  29   17   18 ar
  30   17   22 ar
  31   18   19 ar
  32   18   36 1
  33   19   20 ar
  34   19   37 1
  35   20   21 ar
  36   20   38 1
  37   21   22 ar
  38   21   24 ar
  39   22   23 ar
  40   23   26 ar
  41   24   25 ar
  42   24   39 1
  43   25   26 ar
  44   25   40 1
  45   26   41 1

#	End of record

