#	Name: ASD09720060
#	Creating user name:	WinNT
#	Creation time:	15. 06. 2019 21:22

#	Modifying user name:	WinNT
#	Modification time:	15. 06. 2019 21:22

#	Program:	/corina/corina34_cracker 3.40 0067  02.08.2006

@<TRIPOS>MOLECULE
ASD09720060
  37   39    0    0    0
SMALL
NO_CHARGES


@<TRIPOS>ATOM
   1 C1             0.0052     1.5026    -0.1898 C.2     
   2 C2             0.0559     0.0645    -0.4925 C.2     
   3 N3             1.1849    -0.4943    -0.7952 N.2     
   4 C4            -1.2053    -0.7593    -0.4505 C.3     
   5 O5             2.3699     0.2798    -0.8346 O.3     
   6 S6            -0.8400    -2.4520    -0.9908 S.3     
   7 C7            -2.4064    -3.2509    -0.8774 C.ar    
   8 C8            -2.5303    -4.5926    -1.2181 C.ar    
   9 C9            -3.7594    -5.2153    -1.1280 C.ar    
  10 C10           -4.8665    -4.5055    -0.6998 C.ar    
  11 C11           -4.7470    -3.1701    -0.3604 C.ar    
  12 C12           -3.5198    -2.5425    -0.4417 C.ar    
  13 C13            1.0856     2.3488    -0.0437 C.2     
  14 C14            0.5913     3.6210     0.2370 C.2     
  15 N15           -0.7166     3.5679     0.2636 N.2     
  16 N16           -1.1203     2.2543    -0.0060 N.pl3   
  17 C17            1.4246     4.8544     0.4721 C.3     
  18 C18           -2.5018     1.7710    -0.0694 C.3     
  19 C19            1.9512     5.0918     1.8889 C.3     
  20 C20            2.9102     4.6552     0.7795 C.3     
  21 H21           -1.5929    -0.7787     0.5680 H       
  22 H22           -1.9493    -0.3187    -1.1141 H       
  23 H23            3.1611    -0.2240    -1.0697 H       
  24 H24           -1.6664    -5.1473    -1.5532 H       
  25 H25           -3.8565    -6.2579    -1.3925 H       
  26 H26           -5.8267    -4.9951    -0.6307 H       
  27 H27           -5.6137    -2.6188    -0.0268 H       
  28 H28           -3.4272    -1.4996    -0.1765 H       
  29 H29            2.1265     2.0743    -0.1307 H       
  30 H30            1.1446     5.7298    -0.1140 H       
  31 H31           -2.8358     1.7605    -1.1069 H       
  32 H32           -2.5527     0.7616     0.3389 H       
  33 H33           -3.1448     2.4312     0.5127 H       
  34 H34            2.0179     6.1233     2.2348 H       
  35 H35            1.6948     4.3558     2.6510 H       
  36 H36            3.2847     3.6321     0.8117 H       
  37 H37            3.6078     5.3996     0.3956 H       
@<TRIPOS>BOND
   1    1    2 1
   2    1   13 2
   3    1   16 1
   4    2    3 2
   5    2    4 1
   6    3    5 1
   7    4    6 1
   8    4   21 1
   9    4   22 1
  10    5   23 1
  11    6    7 1
  12    7    8 ar
  13    7   12 ar
  14    8    9 ar
  15    8   24 1
  16    9   10 ar
  17    9   25 1
  18   10   11 ar
  19   10   26 1
  20   11   12 ar
  21   11   27 1
  22   12   28 1
  23   13   14 1
  24   13   29 1
  25   14   15 2
  26   14   17 1
  27   15   16 1
  28   16   18 1
  29   17   19 1
  30   17   20 1
  31   17   30 1
  32   18   31 1
  33   18   32 1
  34   18   33 1
  35   19   20 1
  36   19   34 1
  37   19   35 1
  38   20   36 1
  39   20   37 1

#	End of record

