#	Name: ASD01900045
#	Creating user name:	WinNT
#	Creation time:	15. 06. 2019 19:51

#	Modifying user name:	WinNT
#	Modification time:	15. 06. 2019 19:51

#	Program:	/corina/corina34_cracker 3.40 0067  02.08.2006

@<TRIPOS>MOLECULE
ASD01900045
  37   39    0    0    0
SMALL
NO_CHARGES


@<TRIPOS>ATOM
   1 C1             0.0288     1.5767    -0.0594 C.3     
   2 C2             0.0141     0.0371     0.0461 C.3     
   3 C3             1.2144    -0.5399     0.7514 C.2     
   4 O4             2.2697     0.0578     0.7402 O.2     
   5 O5             2.2565     1.7579    -1.1083 O.3     
   6 C6             1.4130     2.1660    -0.1472 C.2     
   7 O7             1.7636     3.0058     0.6476 O.2     
   8 N8             1.1152    -1.7202     1.3945 N.am    
   9 C9             2.2553    -2.3136     1.9475 C.ar    
  10 C10            2.1391    -3.1484     3.0510 C.ar    
  11 C11            3.2670    -3.7337     3.5952 C.ar    
  12 C12            4.5111    -3.4880     3.0414 C.ar    
  13 C13            4.6297    -2.6565     1.9417 C.ar    
  14 C14            3.5042    -2.0732     1.3902 C.ar    
  15 Cl15           6.1923    -2.3508     1.2500 Cl      
  16 Cl16           3.1226    -4.7775     4.9748 Cl      
  17 C17            0.3889     0.2885     3.3148 C.2     
  18 C18           -0.4674    -0.6620     3.1646 C.2     
  19 C19           -1.4584    -0.7453     2.0485 C.3     
  20 C20           -1.1914     0.2485     0.9497 C.3     
  21 C21           -0.5616     1.5776     1.3771 C.3     
  22 C22            0.5852     1.4355     2.3821 C.3     
  23 H23           -0.6501     1.9715    -0.8153 H       
  24 H24           -0.2156    -0.4690    -0.8916 H       
  25 H25            3.1336     2.1647    -1.1244 H       
  26 H26            0.2534    -2.1583     1.4740 H       
  27 H27            1.1684    -3.3399     3.4840 H       
  28 H28            5.3912    -3.9458     3.4685 H       
  29 H29            3.5972    -1.4245     0.5317 H       
  30 H30            1.0184     0.2519     4.1915 H       
  31 H31           -0.4693    -1.4556     3.8972 H       
  32 H32           -1.4290    -1.7502     1.6274 H       
  33 H33           -2.4554    -0.5647     2.4502 H       
  34 H34           -2.0922     0.4331     0.3645 H       
  35 H35           -1.2657     2.3795     1.5990 H       
  36 H36            0.6599     2.3542     2.9640 H       
  37 H37            1.5170     1.2899     1.8356 H       
@<TRIPOS>BOND
   1    1    2 1
   2    1    6 1
   3    1   21 1
   4    1   23 1
   5    2    3 1
   6    2   20 1
   7    2   24 1
   8    3    4 2
   9    3    8 am
  10    5    6 1
  11    5   25 1
  12    6    7 2
  13    8    9 1
  14    8   26 1
  15    9   10 ar
  16    9   14 ar
  17   10   11 ar
  18   10   27 1
  19   11   12 ar
  20   11   16 1
  21   12   13 ar
  22   12   28 1
  23   13   14 ar
  24   13   15 1
  25   14   29 1
  26   17   18 2
  27   17   22 1
  28   17   30 1
  29   18   19 1
  30   18   31 1
  31   19   20 1
  32   19   32 1
  33   19   33 1
  34   20   21 1
  35   20   34 1
  36   21   22 1
  37   21   35 1
  38   22   36 1
  39   22   37 1

#	End of record

