#	Name: ASD03731785
#	Creating user name:	WinNT
#	Creation time:	15. 06. 2019 20:46

#	Modifying user name:	WinNT
#	Modification time:	15. 06. 2019 20:46

#	Program:	/corina/corina34_cracker 3.40 0067  02.08.2006

@<TRIPOS>MOLECULE
ASD03731785
  33   34    0    0    0
SMALL
NO_CHARGES


@<TRIPOS>ATOM
   1 C1             0.1207     1.4720    -0.0164 C.2     
   2 C2             0.1042    -0.0039    -0.0176 C.ar    
   3 C3             1.2952    -0.7178    -0.1766 C.ar    
   4 C4             1.2755    -2.0953    -0.1766 C.ar    
   5 C5             0.0718    -2.7752    -0.0187 C.ar    
   6 C6            -1.1140    -2.0682     0.1391 C.ar    
   7 C7            -1.1013    -0.6909     0.1459 C.ar    
   8 O8             1.1714     2.0683    -0.1539 O.2     
   9 N9            -1.0295     2.1587     0.1314 N.am    
  10 S10           -1.0110     3.8146     0.1327 S.o2    
  11 O11           -2.3696     4.1801     0.3323 O.2     
  12 O12           -0.0135     4.1531     1.0865 O.2     
  13 C13           -0.4704     4.2625    -1.5399 C.3     
  14 O14            0.0558    -4.1323    -0.0192 O.3     
  15 C15            0.2835    -4.7735     1.1572 C.ar    
  16 C16            0.2136    -6.1592     1.2192 C.ar    
  17 C17            0.4461    -6.8083     2.4170 C.ar    
  18 C18            0.7480    -6.0789     3.5526 C.ar    
  19 C19            0.8181    -4.6996     3.4930 C.ar    
  20 C20            0.5917    -4.0456     2.2969 C.ar    
  21 Cl21          -0.1660    -7.0748    -0.2060 Cl      
  22 Cl22           2.7538    -2.9837    -0.3745 Cl      
  23 H23            2.2296    -0.1903    -0.2995 H       
  24 H24           -2.0463    -2.5994     0.2610 H       
  25 H25           -2.0230    -0.1425     0.2734 H       
  26 H26           -1.8682     1.6830     0.2370 H       
  27 H27           -1.1762     3.8641    -2.2688 H       
  28 H28           -0.4291     5.3480    -1.6299 H       
  29 H29            0.5190     3.8446    -1.7261 H       
  30 H30            0.3916    -7.8858     2.4664 H       
  31 H31            0.9291    -6.5879     4.4877 H       
  32 H32            1.0537    -4.1326     4.3815 H       
  33 H33            0.6511    -2.9683     2.2504 H       
@<TRIPOS>BOND
   1    1    2 1
   2    1    8 2
   3    1    9 am
   4    2    3 ar
   5    2    7 ar
   6    3    4 ar
   7    3   23 1
   8    4    5 ar
   9    4   22 1
  10    5    6 ar
  11    5   14 1
  12    6    7 ar
  13    6   24 1
  14    7   25 1
  15    9   10 am
  16    9   26 1
  17   10   11 2
  18   10   12 2
  19   10   13 1
  20   13   27 1
  21   13   28 1
  22   13   29 1
  23   14   15 1
  24   15   16 ar
  25   15   20 ar
  26   16   17 ar
  27   16   21 1
  28   17   18 ar
  29   17   30 1
  30   18   19 ar
  31   18   31 1
  32   19   20 ar
  33   19   32 1
  34   20   33 1

#	End of record

