#	Name: ASD01910589
#	Creating user name:	WinNT
#	Creation time:	15. 06. 2019 19:56

#	Modifying user name:	WinNT
#	Modification time:	15. 06. 2019 19:56

#	Program:	/corina/corina34_cracker 3.40 0067  02.08.2006

@<TRIPOS>MOLECULE
ASD01910589
  43   46    0    0    0
SMALL
NO_CHARGES


@<TRIPOS>ATOM
   1 C1             2.2933     0.0414     1.8016 C.ar    
   2 C2             2.2593    -1.2744     1.3791 C.ar    
   3 C3             3.2265    -1.7559     0.5137 C.ar    
   4 C4             4.2324    -0.9257     0.0660 C.ar    
   5 C5             4.2748     0.4050     0.4867 C.ar    
   6 C6             3.2955     0.8861     1.3607 C.ar    
   7 C7             5.3497     1.2997     0.0114 C.2     
   8 N8             5.5132     2.5732     0.3250 N.2     
   9 C9             6.6120     2.9682    -0.3366 C.2     
  10 N10            7.0576     1.9461    -1.0058 N.2     
  11 O11            6.3538     0.9763    -0.8183 O.3     
  12 C12            7.2193     4.3471    -0.3095 C.3     
  13 C13            8.6507     4.2644     0.2258 C.3     
  14 C14            9.2570     5.6684     0.2846 C.3     
  15 C15            9.3024     6.2602    -1.1276 C.3     
  16 N16            7.9523     6.2097    -1.7051 N.am    
  17 C17            7.2416     4.9240    -1.7285 C.3     
  18 C18            7.3768     7.3216    -2.2040 C.2     
  19 C19            8.0489     8.6259    -2.0636 C.2     
  20 O20            6.3029     7.2488    -2.7700 O.2     
  21 F21            3.3279     2.1722     1.7731 F       
  22 C22            8.7368     9.1811    -0.8878 C.2     
  23 N23            9.1614    10.3525    -1.2594 N.2     
  24 O24            8.8695    10.6038    -2.4028 O.3     
  25 C25            8.1928     9.6203    -3.0002 C.2     
  26 C26            7.6791     9.6081    -4.4169 C.3     
  27 H27            1.5331     0.4116     2.4736 H       
  28 H28            1.4745    -1.9301     1.7263 H       
  29 H29            3.1934    -2.7853     0.1885 H       
  30 H30            4.9861    -1.3041    -0.6086 H       
  31 H31            6.6259     4.9934     0.3372 H       
  32 H32            8.6399     3.8314     1.2260 H       
  33 H33            9.2498     3.6376    -0.4347 H       
  34 H34            8.6445     6.3027     0.9254 H       
  35 H35           10.2681     5.6114     0.6878 H       
  36 H36            9.6406     7.2953    -1.0794 H       
  37 H37            9.9862     5.6786    -1.7458 H       
  38 H38            7.7574     4.2334    -2.3956 H       
  39 H39            6.2201     5.0774    -2.0766 H       
  40 H40            8.8625     8.7150     0.0783 H       
  41 H41            7.9433    10.5450    -4.9073 H       
  42 H42            8.1273     8.7753    -4.9587 H       
  43 H43            6.5950     9.4951    -4.4093 H       
@<TRIPOS>BOND
   1    1    2 ar
   2    1    6 ar
   3    1   27 1
   4    2    3 ar
   5    2   28 1
   6    3    4 ar
   7    3   29 1
   8    4    5 ar
   9    4   30 1
  10    5    6 ar
  11    5    7 1
  12    6   21 1
  13    7    8 2
  14    7   11 1
  15    8    9 1
  16    9   10 2
  17    9   12 1
  18   10   11 1
  19   12   13 1
  20   12   17 1
  21   12   31 1
  22   13   14 1
  23   13   32 1
  24   13   33 1
  25   14   15 1
  26   14   34 1
  27   14   35 1
  28   15   16 1
  29   15   36 1
  30   15   37 1
  31   16   17 1
  32   16   18 am
  33   17   38 1
  34   17   39 1
  35   18   19 1
  36   18   20 2
  37   19   22 1
  38   19   25 2
  39   22   23 2
  40   22   40 1
  41   23   24 1
  42   24   25 1
  43   25   26 1
  44   26   41 1
  45   26   42 1
  46   26   43 1

#	End of record

