#	Name: ASD03930170
#	Creating user name:	WinNT
#	Creation time:	15. 06. 2019 20:47

#	Modifying user name:	WinNT
#	Modification time:	15. 06. 2019 20:47

#	Program:	/corina/corina34_cracker 3.40 0067  02.08.2006

@<TRIPOS>MOLECULE
ASD03930170
  27   29    0    0    0
SMALL
NO_CHARGES


@<TRIPOS>ATOM
   1 C1            -0.0167     1.3784     0.0096 C.ar    
   2 C2             0.0021    -0.0041     0.0020 C.ar    
   3 C3             1.2016    -0.6833     0.0064 C.ar    
   4 C4             2.4093     0.0143     0.0195 C.ar    
   5 C5             2.3771     1.4070    -0.0124 C.ar    
   6 C6             1.1750     2.0808     0.0020 C.ar    
   7 N7             3.5908    -0.6756     0.1185 N.3     
   8 C8             4.7275    -0.1284    -0.6443 C.3     
   9 N9             5.0914     1.1563    -0.0190 N.am    
  10 S10            3.8902     2.3183    -0.1170 S.o2    
  11 O11            3.9517     2.8631    -1.4279 O.2     
  12 O12            3.9799     3.1024     1.0647 O.2     
  13 C13            3.5652    -2.1153    -0.1436 C.3     
  14 C14            5.0229    -2.5169    -0.4703 C.3     
  15 C15            5.8257    -1.1899    -0.4250 C.3     
  16 H16           -0.9580     1.9078     0.0170 H       
  17 H17           -0.9272    -0.5543    -0.0071 H       
  18 H18            1.2063    -1.7632     0.0001 H       
  19 H19            1.1633     3.1607     0.0071 H       
  20 H20            4.4799    -0.0020    -1.6983 H       
  21 H21            5.9474     1.3136     0.4093 H       
  22 H22            3.2173    -2.6512     0.7395 H       
  23 H23            2.9173    -2.3305    -0.9932 H       
  24 H24            5.4005    -3.2136     0.2780 H       
  25 H25            5.0798    -2.9601    -1.4645 H       
  26 H26            6.5629    -1.1558    -1.2272 H       
  27 H27            6.3025    -1.0587     0.5464 H       
@<TRIPOS>BOND
   1    1    2 ar
   2    1    6 ar
   3    1   16 1
   4    2    3 ar
   5    2   17 1
   6    3    4 ar
   7    3   18 1
   8    4    5 ar
   9    4    7 1
  10    5    6 ar
  11    5   10 1
  12    6   19 1
  13    7    8 1
  14    7   13 1
  15    8    9 1
  16    8   15 1
  17    8   20 1
  18    9   10 am
  19    9   21 1
  20   10   11 2
  21   10   12 2
  22   13   14 1
  23   13   22 1
  24   13   23 1
  25   14   15 1
  26   14   24 1
  27   14   25 1
  28   15   26 1
  29   15   27 1

#	End of record

