#	Name: ASD06340053
#	Creating user name:	WinNT
#	Creation time:	15. 06. 2019 21:06

#	Modifying user name:	WinNT
#	Modification time:	15. 06. 2019 21:06

#	Program:	/corina/corina34_cracker 3.40 0067  02.08.2006

@<TRIPOS>MOLECULE
ASD06340053
  38   40    0    0    0
SMALL
NO_CHARGES


@<TRIPOS>ATOM
   1 S1            -0.0210     1.6939     0.0114 S.3     
   2 N2             0.0021    -0.0041     0.0020 N.am    
   3 C3             1.2962    -0.3594    -0.0122 C.2     
   4 N4             2.1856     0.6226    -0.0155 N.am    
   5 C5             1.6912     1.8721    -0.0040 C.2     
   6 O6             1.6365    -1.5276    -0.0214 O.2     
   7 O7             2.3224     2.9128    -0.0052 O.2     
   8 C8             3.6269     0.3610    -0.0302 C.3     
   9 C9             4.1080     0.2785    -1.4559 C.ar    
  10 C10            4.5425     1.4186    -2.1058 C.ar    
  11 C11            4.9837     1.3430    -3.4137 C.ar    
  12 C12            4.9909     0.1272    -4.0715 C.ar    
  13 C13            4.5573    -1.0130    -3.4213 C.ar    
  14 C14            4.1201    -0.9381    -2.1121 C.ar    
  15 C15            5.4710     0.0450    -5.4976 C.3     
  16 C16           -1.1036    -0.8590     0.0084 C.ar    
  17 C17           -2.3257    -0.4205    -0.4857 C.ar    
  18 C18           -3.2923    -2.5519     0.0205 C.ar    
  19 C19           -0.9815    -2.1514     0.5036 C.ar    
  20 C20           -3.4159    -1.2680    -0.4784 C.ar    
  21 C21           -2.0758    -2.9936     0.5079 C.ar    
  22 C22           -4.4845    -3.4738     0.0274 C.3     
  23 H23            4.1482     1.1691     0.4830 H       
  24 H24            3.8302    -0.5822     0.4770 H       
  25 H25            4.5369     2.3685    -1.5919 H       
  26 H26            5.3225     2.2338    -3.9216 H       
  27 H27            4.5625    -1.9628    -3.9354 H       
  28 H28            3.7848    -1.8296    -1.6029 H       
  29 H29            6.5435    -0.1490    -5.5093 H       
  30 H30            4.9500    -0.7636    -6.0103 H       
  31 H31            5.2667     0.9879    -6.0047 H       
  32 H32           -2.4231     0.5823    -0.8749 H       
  33 H33           -0.0318    -2.4970     0.8843 H       
  34 H34           -4.3663    -0.9277    -0.8623 H       
  35 H35           -1.9828    -3.9969     0.8969 H       
  36 H36           -4.5152    -4.0349    -0.9066 H       
  37 H37           -4.4032    -4.1665     0.8650 H       
  38 H38           -5.3972    -2.8866     0.1287 H       
@<TRIPOS>BOND
   1    1    2 1
   2    1    5 1
   3    2    3 am
   4    2   16 1
   5    3    4 am
   6    3    6 2
   7    4    5 am
   8    4    8 1
   9    5    7 2
  10    8    9 1
  11    8   23 1
  12    8   24 1
  13    9   10 ar
  14    9   14 ar
  15   10   11 ar
  16   10   25 1
  17   11   12 ar
  18   11   26 1
  19   12   13 ar
  20   12   15 1
  21   13   14 ar
  22   13   27 1
  23   14   28 1
  24   15   29 1
  25   15   30 1
  26   15   31 1
  27   16   17 ar
  28   16   19 ar
  29   17   20 ar
  30   17   32 1
  31   18   20 ar
  32   18   21 ar
  33   18   22 1
  34   19   21 ar
  35   19   33 1
  36   20   34 1
  37   21   35 1
  38   22   36 1
  39   22   37 1
  40   22   38 1

#	End of record

