#	Name: ASD03082417
#	Creating user name:	WinNT
#	Creation time:	15. 06. 2019 20:27

#	Modifying user name:	WinNT
#	Modification time:	15. 06. 2019 20:27

#	Program:	/corina/corina34_cracker 3.40 0067  02.08.2006

@<TRIPOS>MOLECULE
ASD03082417
  53   56    0    0    0
SMALL
NO_CHARGES


@<TRIPOS>ATOM
   1 C1             1.1655     3.4998     0.0368 C.ar    
   2 C2             2.3563     4.2096     0.1190 C.ar    
   3 C3             2.3357     5.5904     0.1536 C.ar    
   4 C4             1.1312     6.2678     0.1065 C.ar    
   5 C5            -0.0586     5.5656     0.0246 C.ar    
   6 Cl6           -1.5683     6.4205    -0.0349 Cl      
   7 N7             1.1838     2.1018     0.0020 N.pl3   
   8 C8             2.3998     1.4211    -0.1188 C.2     
   9 C9             2.5760     0.0288    -0.0419 C.2     
  10 N10            3.5724     1.9718    -0.3293 N.2     
  11 N11            4.5308     0.9518    -0.3878 N.pl3   
  12 C12            3.8917    -0.2336    -0.2081 C.2     
  13 C13            5.9024     1.1231    -0.5978 C.ar    
  14 C14            6.3767     2.1283    -1.4386 C.ar    
  15 C15            6.8308     0.2969     0.0327 C.ar    
  16 C16            8.1757     0.4989    -0.2006 C.ar    
  17 N17            8.5853     1.4591    -1.0077 N.ar    
  18 C18            7.7379     2.2647    -1.6192 C.ar    
  19 C19            9.1894    -0.3880     0.4752 C.3     
  20 C20            8.2630     3.3439    -2.5305 C.3     
  21 C21            4.5343    -1.5966    -0.1957 C.3     
  22 O22            3.5334    -2.5932     0.0207 O.3     
  23 C23           -0.0455     4.1821    -0.0052 C.ar    
  24 C24            4.0400    -3.9291     0.0502 C.3     
  25 C25            2.9044    -4.8920     0.2831 C.ar    
  26 C26            2.2169    -5.4230    -0.7922 C.ar    
  27 C27            1.1752    -6.3062    -0.5786 C.ar    
  28 C28            0.8213    -6.6589     0.7103 C.ar    
  29 C29            1.5095    -6.1286     1.7856 C.ar    
  30 C30            2.5540    -5.2487     1.5718 C.ar    
  31 F31           -1.2065     3.4959    -0.0857 F       
  32 H32            3.2981     3.6823     0.1562 H       
  33 H33            3.2620     6.1419     0.2179 H       
  34 H34            1.1188     7.3474     0.1342 H       
  35 H35            0.3533     1.6042     0.0618 H       
  36 H36            1.7980    -0.7022     0.1217 H       
  37 H37            5.6885     2.7910    -1.9421 H       
  38 H38            6.5022    -0.4904     0.6949 H       
  39 H39            9.3939    -1.2527    -0.1560 H       
  40 H40           10.1114     0.1708     0.6357 H       
  41 H41            8.7962    -0.7235     1.4349 H       
  42 H42            8.3455     2.9543    -3.5452 H       
  43 H43            7.5783     4.1920    -2.5215 H       
  44 H44            9.2450     3.6660    -2.1840 H       
  45 H45            5.0246    -1.7758    -1.1526 H       
  46 H46            5.2724    -1.6431     0.6050 H       
  47 H47            4.5200    -4.1567    -0.9016 H       
  48 H48            4.7679    -4.0239     0.8560 H       
  49 H49            2.4933    -5.1474    -1.7992 H       
  50 H50            0.6376    -6.7205    -1.4187 H       
  51 H51            0.0070    -7.3484     0.8773 H       
  52 H52            1.2328    -6.4039     2.7926 H       
  53 H53            3.0916    -4.8345     2.4119 H       
@<TRIPOS>BOND
   1    1    2 ar
   2    1    7 1
   3    1   23 ar
   4    2    3 ar
   5    2   32 1
   6    3    4 ar
   7    3   33 1
   8    4    5 ar
   9    4   34 1
  10    5   23 ar
  11    5    6 1
  12    7    8 1
  13    7   35 1
  14    8    9 1
  15    8   10 2
  16    9   12 2
  17    9   36 1
  18   10   11 1
  19   11   12 1
  20   11   13 1
  21   12   21 1
  22   13   14 ar
  23   13   15 ar
  24   14   18 ar
  25   14   37 1
  26   15   16 ar
  27   15   38 1
  28   16   17 ar
  29   16   19 1
  30   17   18 ar
  31   18   20 1
  32   19   39 1
  33   19   40 1
  34   19   41 1
  35   20   42 1
  36   20   43 1
  37   20   44 1
  38   21   22 1
  39   21   45 1
  40   21   46 1
  41   22   24 1
  42   23   31 1
  43   24   25 1
  44   24   47 1
  45   24   48 1
  46   25   26 ar
  47   25   30 ar
  48   26   27 ar
  49   26   49 1
  50   27   28 ar
  51   27   50 1
  52   28   29 ar
  53   28   51 1
  54   29   30 ar
  55   29   52 1
  56   30   53 1

#	End of record

