#	Name: ASD01903276
#	Creating user name:	WinNT
#	Creation time:	15. 06. 2019 19:54

#	Modifying user name:	WinNT
#	Modification time:	15. 06. 2019 19:54

#	Program:	/corina/corina34_cracker 3.40 0067  02.08.2006

@<TRIPOS>MOLECULE
ASD01903276
  50   53    0    0    0
SMALL
NO_CHARGES


@<TRIPOS>ATOM
   1 C1             0.0014     1.3543    -0.0610 C.ar    
   2 C2            -0.0642     0.0995     0.5229 C.ar    
   3 C3             1.0588    -0.4180     1.1498 C.ar    
   4 C4             2.2154     0.3451     1.1697 C.ar    
   5 C5             2.2094     1.5990     0.5622 C.ar    
   6 N6             1.1123     2.0577    -0.0276 N.ar    
   7 C7             3.4373     2.4273     0.5751 C.2     
   8 O8             4.4446     2.0124     1.1141 O.2     
   9 N9             3.4377     3.6411    -0.0109 N.am    
  10 C10            4.5719     4.4595     0.0736 C.ar    
  11 C11            5.8243     3.8925     0.2618 C.ar    
  12 C12            6.9453     4.7018     0.3453 C.ar    
  13 C13            6.8156     6.0839     0.2403 C.ar    
  14 C14            5.5633     6.6511     0.0520 C.ar    
  15 C15            4.4431     5.8422    -0.0372 C.ar    
  16 N16            7.9517     6.9046     0.3308 N.am    
  17 C17            8.4321     7.4155     1.4787 C.2     
  18 C18            9.6316     8.2222     1.1697 C.ar    
  19 C19            9.8035     8.1381    -0.2270 C.ar    
  20 C20            8.7060     7.2785    -0.7185 C.2     
  21 O21            7.9591     7.2433     2.5840 O.2     
  22 O22            8.5129     6.9682    -1.8767 O.2     
  23 C23           11.5728     9.6214     1.3105 C.ar    
  24 C24           11.7413     9.5390    -0.0589 C.ar    
  25 C25           10.8602     8.7992    -0.8321 C.ar    
  26 C26           10.5202     8.9654     1.9298 C.ar    
  27 C27           10.3430     9.0605     3.4233 C.3     
  28 O28            3.2154     6.3984    -0.2223 O.3     
  29 C29            3.1560     7.8231    -0.3158 C.3     
  30 O30            8.1731     4.1460     0.5303 O.3     
  31 C31            8.2322     2.7217     0.6299 C.3     
  32 H32           -0.8703     1.7585    -0.5541 H       
  33 H33           -0.9814    -0.4698     0.4902 H       
  34 H34            1.0328    -1.3935     1.6125 H       
  35 H35            3.1087    -0.0267     1.6495 H       
  36 H36            2.6527     3.9480    -0.4910 H       
  37 H37            5.9249     2.8203     0.3436 H       
  38 H38            5.4629     7.7234    -0.0290 H       
  39 H39           12.2661    10.2006     1.9023 H       
  40 H40           12.5650    10.0549    -0.5298 H       
  41 H41           10.9970     8.7380    -1.9017 H       
  42 H42           10.8908     8.2515     3.9065 H       
  43 H43           10.7258    10.0188     3.7743 H       
  44 H44            9.2842     8.9801     3.6694 H       
  45 H45            3.7592     8.1573    -1.1600 H       
  46 H46            2.1219     8.1349    -0.4622 H       
  47 H47            3.5417     8.2640     0.6034 H       
  48 H48            9.2665     2.4102     0.7756 H       
  49 H49            7.6306     2.3914     1.4767 H       
  50 H50            7.8445     2.2769    -0.2866 H       
@<TRIPOS>BOND
   1    1    2 ar
   2    1    6 ar
   3    1   32 1
   4    2    3 ar
   5    2   33 1
   6    3    4 ar
   7    3   34 1
   8    4    5 ar
   9    4   35 1
  10    5    6 ar
  11    5    7 1
  12    7    8 2
  13    7    9 am
  14    9   10 1
  15    9   36 1
  16   10   11 ar
  17   10   15 ar
  18   11   12 ar
  19   11   37 1
  20   12   30 1
  21   12   13 ar
  22   13   14 ar
  23   13   16 1
  24   14   15 ar
  25   14   38 1
  26   15   28 1
  27   16   17 am
  28   16   20 am
  29   17   18 1
  30   17   21 2
  31   18   19 ar
  32   18   26 ar
  33   19   20 1
  34   19   25 ar
  35   20   22 2
  36   23   24 ar
  37   23   26 ar
  38   23   39 1
  39   24   25 ar
  40   24   40 1
  41   25   41 1
  42   26   27 1
  43   27   42 1
  44   27   43 1
  45   27   44 1
  46   28   29 1
  47   29   45 1
  48   29   46 1
  49   29   47 1
  50   30   31 1
  51   31   48 1
  52   31   49 1
  53   31   50 1

#	End of record

