#	Name: ASD01412082
#	Creating user name:	WinNT
#	Creation time:	15. 06. 2019 19:20

#	Modifying user name:	WinNT
#	Modification time:	15. 06. 2019 19:20

#	Program:	/corina/corina34_cracker 3.40 0067  02.08.2006

@<TRIPOS>MOLECULE
ASD01412082
  53   56    0    0    0
SMALL
NO_CHARGES


@<TRIPOS>ATOM
   1 C1             0.2113     1.3565     1.2453 C.ar    
   2 C2             0.1852    -0.0193     1.0660 C.ar    
   3 C3             1.3368    -0.7102     0.7298 C.ar    
   4 C4             2.5391    -0.0329     0.5678 C.ar    
   5 C5             2.5806     1.3637     0.7474 C.ar    
   6 C6             1.4026     2.0599     1.0884 C.ar    
   7 O7            -0.9836    -0.6959     1.2225 O.3     
   8 N8             3.8164    -0.4425     0.2434 N.pl3   
   9 C9             4.6531     0.6318     0.2133 C.2     
  10 C10            3.9597     1.7534     0.5112 C.2     
  11 C11            6.1324     0.6481    -0.0967 C.3     
  12 O12            6.5158     2.0024    -0.3667 O.3     
  13 C13            6.1074     2.9429     0.6304 C.3     
  14 C14            4.5835     3.1245     0.5688 C.3     
  15 C15            6.9179     0.1185     1.1047 C.3     
  16 C16            6.4129    -0.2226    -1.3231 C.3     
  17 C17           -2.1369     0.0731     1.5700 C.3     
  18 C18            8.4157     0.1664     0.7960 C.3     
  19 C19            9.2062    -0.2430     2.0404 C.3     
  20 C20           -3.3289    -0.8398     1.6997 C.ar    
  21 N21           -4.5050    -0.3348     2.0165 N.ar    
  22 C22           -5.5755    -1.0950     2.1410 C.ar    
  23 C23           -5.4998    -2.4604     1.9420 C.ar    
  24 C24           -4.2795    -3.0279     1.6075 C.ar    
  25 C25           -3.1779    -2.1960     1.4797 C.ar    
  26 C26            5.6722     0.3316    -2.5127 C.2     
  27 O27            5.0735     1.3768    -2.4183 O.2     
  28 O28            5.6776    -0.3359    -3.6773 O.3     
  29 C29            1.4316     3.4798     1.2724 C.1     
  30 N30            1.4545     4.6061     1.4183 N.1     
  31 H31           -0.6956     1.8835     1.5028 H       
  32 H32            1.3006    -1.7810     0.5932 H       
  33 H33            4.0791    -1.3589     0.0639 H       
  34 H34            6.3897     2.5730     1.6161 H       
  35 H35            6.5952     3.9005     0.4482 H       
  36 H36            4.3147     3.6902    -0.3233 H       
  37 H37            4.2379     3.6506     1.4587 H       
  38 H38            6.7069     0.7361     1.9777 H       
  39 H39            6.6215    -0.9107     1.3075 H       
  40 H40            7.4831    -0.2247    -1.5301 H       
  41 H41            6.0784    -1.2418    -1.1293 H       
  42 H42           -1.9629     0.5805     2.5188 H       
  43 H43           -2.3284     0.8124     0.7923 H       
  44 H44            8.6407    -0.5207    -0.0197 H       
  45 H45            8.6945     1.1793     0.5054 H       
  46 H46            8.9811     0.4441     2.8561 H       
  47 H47            8.9273    -1.2558     2.3311 H       
  48 H48           10.2732    -0.2088     1.8205 H       
  49 H49           -6.5221    -0.6453     2.4018 H       
  50 H50           -6.3798    -3.0777     2.0461 H       
  51 H51           -4.1903    -4.0921     1.4464 H       
  52 H52           -2.2121    -2.6037     1.2199 H       
  53 H53            5.1884     0.0590    -4.4119 H       
@<TRIPOS>BOND
   1    1    2 ar
   2    1    6 ar
   3    1   31 1
   4    2    3 ar
   5    2    7 1
   6    3    4 ar
   7    3   32 1
   8    4    5 ar
   9    4    8 1
  10    5    6 ar
  11    5   10 1
  12    6   29 1
  13    7   17 1
  14    8    9 1
  15    8   33 1
  16    9   10 2
  17    9   11 1
  18   10   14 1
  19   11   12 1
  20   11   15 1
  21   11   16 1
  22   12   13 1
  23   13   14 1
  24   13   34 1
  25   13   35 1
  26   14   36 1
  27   14   37 1
  28   15   18 1
  29   15   38 1
  30   15   39 1
  31   16   26 1
  32   16   40 1
  33   16   41 1
  34   17   20 1
  35   17   42 1
  36   17   43 1
  37   18   19 1
  38   18   44 1
  39   18   45 1
  40   19   46 1
  41   19   47 1
  42   19   48 1
  43   20   21 ar
  44   20   25 ar
  45   21   22 ar
  46   22   23 ar
  47   22   49 1
  48   23   24 ar
  49   23   50 1
  50   24   25 ar
  51   24   51 1
  52   25   52 1
  53   26   27 2
  54   26   28 1
  55   28   53 1
  56   29   30 3

#	End of record

