#	Name: ASD01140638
#	Creating user name:	WinNT
#	Creation time:	15. 06. 2019 19:01

#	Modifying user name:	WinNT
#	Modification time:	15. 06. 2019 19:01

#	Program:	/corina/corina34_cracker 3.40 0067  02.08.2006

@<TRIPOS>MOLECULE
ASD01140638
  38   40    0    0    0
SMALL
NO_CHARGES


@<TRIPOS>ATOM
   1 C1            -0.0006     1.3394    -0.1885 C.2     
   2 C2             0.0226    -0.0192    -0.1308 C.2     
   3 C3             1.2495    -0.6891     0.0219 C.2     
   4 C4             2.4013     0.0118     0.1111 C.2     
   5 C5             1.2096     2.0567    -0.0940 C.2     
   6 N6             1.4768     3.3545    -0.1200 N.2     
   7 N7             2.3907     1.3771     0.0549 N.pl3   
   8 C8             3.3886     2.3088     0.1190 C.2     
   9 C9             2.8009     3.5330     0.0078 C.2     
  10 C10            3.5042     4.8397     0.0255 C.ar    
  11 C11            4.7011     4.9983    -0.6702 C.ar    
  12 C12            5.3527     6.2146    -0.6517 C.ar    
  13 C13            4.8193     7.2782     0.0570 C.ar    
  14 C14            3.6280     7.1259     0.7514 C.ar    
  15 C15            2.9665     5.9126     0.7331 C.ar    
  16 C16            4.8614     2.0339     0.2807 C.3     
  17 N17            5.4532     1.7561    -1.0303 N.am    
  18 C18            6.7687     1.4808    -1.1312 C.2     
  19 C19            7.3774     1.1950    -2.4799 C.3     
  20 O20            7.4625     1.4629    -0.1366 O.2     
  21 F21            1.2767    -2.0385     0.0801 F       
  22 F22            5.4610     8.4670     0.0726 F       
  23 C23            8.8728     0.9159    -2.3156 C.3     
  24 F24            3.1112     8.1661     1.4415 F       
  25 H25           -0.9369     1.8638    -0.3100 H       
  26 H26           -0.8971    -0.5809    -0.2016 H       
  27 H27            3.3386    -0.5117     0.2282 H       
  28 H28            5.1187     4.1698    -1.2231 H       
  29 H29            6.2806     6.3372    -1.1907 H       
  30 H30            2.0366     5.7953     1.2696 H       
  31 H31            5.3472     2.9044     0.7216 H       
  32 H32            5.0006     1.1713     0.9323 H       
  33 H33            4.8983     1.7704    -1.8258 H       
  34 H34            6.8916     0.3245    -2.9207 H       
  35 H35            7.2382     2.0576    -3.1315 H       
  36 H36            9.3131     0.7092    -3.2911 H       
  37 H37            9.3586     1.7864    -1.8748 H       
  38 H38            9.0119     0.0533    -1.6640 H       
@<TRIPOS>BOND
   1    1    2 2
   2    1    5 1
   3    1   25 1
   4    2    3 1
   5    2   26 1
   6    3    4 2
   7    3   21 1
   8    4    7 1
   9    4   27 1
  10    5    7 1
  11    5    6 2
  12    6    9 1
  13    7    8 1
  14    8    9 2
  15    8   16 1
  16    9   10 1
  17   10   11 ar
  18   10   15 ar
  19   11   12 ar
  20   11   28 1
  21   12   13 ar
  22   12   29 1
  23   13   14 ar
  24   13   22 1
  25   14   15 ar
  26   14   24 1
  27   15   30 1
  28   16   17 1
  29   16   31 1
  30   16   32 1
  31   17   18 am
  32   17   33 1
  33   18   19 1
  34   18   20 2
  35   19   23 1
  36   19   34 1
  37   19   35 1
  38   23   36 1
  39   23   37 1
  40   23   38 1

#	End of record

