#	Name: ASD03330593
#	Creating user name:	WinNT
#	Creation time:	15. 06. 2019 20:37

#	Modifying user name:	WinNT
#	Modification time:	15. 06. 2019 20:37

#	Program:	/corina/corina34_cracker 3.40 0067  02.08.2006

@<TRIPOS>MOLECULE
ASD03330593
  70   73    0    0    0
SMALL
NO_CHARGES


@<TRIPOS>ATOM
   1 C1             0.0954     1.8376    -1.0555 C.2     
   2 N2             0.0576     0.5354    -1.4239 N.pl3   
   3 C3             1.3575     2.0932    -0.6108 C.2     
   4 N4             2.0741     0.9544    -0.7294 N.2     
   5 C5             1.3024     0.0146    -1.2226 C.2     
   6 C6             1.7134    -1.3772    -1.5117 C.ar    
   7 C7             1.8521     3.3812    -0.0931 C.2     
   8 O8             1.1063     4.3401    -0.0351 O.2     
   9 C9             3.6228     4.7770     0.8307 C.3     
  10 N10            3.1311     3.4966     0.3161 N.am    
  11 C11            3.2902     4.8898     2.3199 C.3     
  12 C12            3.8721     3.6867     3.0649 C.3     
  13 C13            3.8945     6.1784     2.8813 C.3     
  14 C14            1.7714     4.9169     2.5025 C.3     
  15 C15            5.1160     4.8540     0.6423 C.2     
  16 N16            5.7350     6.0512     0.6473 N.am    
  17 O17            5.7607     3.8387     0.4862 O.2     
  18 C18            7.1681     6.1361     0.3550 C.3     
  19 C19           -1.1222    -0.1708    -1.9309 C.3     
  20 C20           -1.7950     0.6836    -3.0097 C.3     
  21 C21           -2.7890     1.6424    -2.3619 C.3     
  22 N22           -2.3187     2.0757    -1.0445 N.3     
  23 C23           -1.0502     2.8122    -1.1462 C.3     
  24 C24           -3.3400     2.8785    -0.3587 C.3     
  25 C25            3.4070    -2.9663    -2.1480 C.ar    
  26 C26            2.4701    -3.9940    -2.0510 C.ar    
  27 C27            1.1659    -3.7127    -1.6926 C.ar    
  28 C28            0.7829    -2.4141    -1.4235 C.ar    
  29 C29            3.0283    -1.6551    -1.8779 C.ar    
  30 C30            4.8073    -3.2710    -2.5336 C.ar    
  31 C31            5.1892    -4.5843    -2.7997 C.ar    
  32 C32            5.7434    -2.2442    -2.6365 C.ar    
  33 C33            7.0443    -2.5333    -2.9956 C.ar    
  34 C34            7.4193    -3.8395    -3.2534 C.ar    
  35 C35            6.4928    -4.8621    -3.1579 C.ar    
  36 H36            3.1457     5.5937     0.2890 H       
  37 H37            3.7259     2.7318     0.2698 H       
  38 H38            4.9541     3.6674     2.9348 H       
  39 H39            3.6351     3.7671     4.1258 H       
  40 H40            3.4415     2.7687     2.6649 H       
  41 H41            3.4997     7.0338     2.3331 H       
  42 H42            3.6355     6.2717     3.9359 H       
  43 H43            4.9789     6.1476     2.7748 H       
  44 H44            1.3409     3.9989     2.1026 H       
  45 H45            1.5344     4.9972     3.5634 H       
  46 H46            1.3568     5.7740     1.9717 H       
  47 H47            5.2317     6.8566     0.8443 H       
  48 H48            7.3589     5.7451    -0.6444 H       
  49 H49            7.4881     7.1768     0.4053 H       
  50 H50            7.7235     5.5494     1.0868 H       
  51 H51           -0.8187    -1.1260    -2.3596 H       
  52 H52           -1.8225    -0.3434    -1.1137 H       
  53 H53           -1.0365     1.2548    -3.5450 H       
  54 H54           -2.3208     0.0350    -3.7103 H       
  55 H55           -2.9134     2.5155    -3.0024 H       
  56 H56           -3.7503     1.1406    -2.2515 H       
  57 H57           -0.9809     3.5327    -0.3312 H       
  58 H58           -1.0084     3.3358    -2.1012 H       
  59 H59           -4.2436     2.2828    -0.2288 H       
  60 H60           -2.9649     3.1871     0.6170 H       
  61 H61           -3.5696     3.7612    -0.9556 H       
  62 H62            2.7645    -5.0125    -2.2568 H       
  63 H63            0.4438    -4.5125    -1.6195 H       
  64 H64           -0.2381    -2.2000    -1.1441 H       
  65 H65            3.7509    -0.8559    -1.9522 H       
  66 H66            4.4665    -5.3835    -2.7254 H       
  67 H67            5.4515    -1.2239    -2.4361 H       
  68 H68            7.7708    -1.7382    -3.0756 H       
  69 H69            8.4382    -4.0612    -3.5348 H       
  70 H70            6.7910    -5.8803    -3.3600 H       
@<TRIPOS>BOND
   1    1    2 1
   2    1    3 2
   3    1   23 1
   4    2   19 1
   5    2    5 1
   6    3    4 1
   7    3    7 1
   8    4    5 2
   9    5    6 1
  10    6   29 ar
  11    6   28 ar
  12    7    8 2
  13    7   10 am
  14    9   10 1
  15    9   11 1
  16    9   15 1
  17    9   36 1
  18   10   37 1
  19   11   12 1
  20   11   13 1
  21   11   14 1
  22   12   38 1
  23   12   39 1
  24   12   40 1
  25   13   41 1
  26   13   42 1
  27   13   43 1
  28   14   44 1
  29   14   45 1
  30   14   46 1
  31   15   16 am
  32   15   17 2
  33   16   18 1
  34   16   47 1
  35   18   48 1
  36   18   49 1
  37   18   50 1
  38   19   20 1
  39   19   51 1
  40   19   52 1
  41   20   21 1
  42   20   53 1
  43   20   54 1
  44   21   22 1
  45   21   55 1
  46   21   56 1
  47   22   23 1
  48   22   24 1
  49   23   57 1
  50   23   58 1
  51   24   59 1
  52   24   60 1
  53   24   61 1
  54   25   26 ar
  55   25   30 1
  56   25   29 ar
  57   26   27 ar
  58   26   62 1
  59   27   28 ar
  60   27   63 1
  61   28   64 1
  62   29   65 1
  63   30   31 ar
  64   30   32 ar
  65   31   35 ar
  66   31   66 1
  67   32   33 ar
  68   32   67 1
  69   33   34 ar
  70   33   68 1
  71   34   35 ar
  72   34   69 1
  73   35   70 1

#	End of record

