#	Name: ASD08710021
#	Creating user name:	WinNT
#	Creation time:	15. 06. 2019 21:19

#	Modifying user name:	WinNT
#	Modification time:	15. 06. 2019 21:19

#	Program:	/corina/corina34_cracker 3.40 0067  02.08.2006

@<TRIPOS>MOLECULE
ASD08710021
  43   45    0    0    0
SMALL
NO_CHARGES


@<TRIPOS>ATOM
   1 C1            -0.3183     1.7207     0.6223 C.ar    
   2 C2            -0.2092     0.3497     0.4833 C.ar    
   3 C3             0.8204     2.4982     0.7207 C.ar    
   4 C4             2.0682     1.9047     0.6800 C.ar    
   5 C5             2.1773     0.5336     0.5414 C.ar    
   6 C6             1.0385    -0.2438     0.4426 C.ar    
   7 S7             1.1775    -1.9915     0.2664 S.o2    
   8 O8            -0.0273    -2.4301    -0.3462 O.2     
   9 O9             2.4641    -2.2382    -0.2842 O.2     
  10 N10            1.1894    -2.6384     1.7908 N.am    
  11 C11           -0.0662    -3.0277     2.4479 C.3     
  12 C12            2.4562    -2.8391     2.5083 C.3     
  13 C13            2.5534    -4.3109     2.9286 C.3     
  14 N14            1.2974    -4.6950     3.5879 N.am    
  15 C15            0.0364    -4.4991     2.8683 C.3     
  16 C16            0.7016     3.9929     0.8719 C.3     
  17 F17            0.6432     4.3210     2.2306 F       
  18 F18            1.8142     4.6103     0.2904 F       
  19 F19           -0.4630     4.4349     0.2349 F       
  20 C20            1.3071    -5.2224     4.8282 C.2     
  21 O21            0.2596    -5.4368     5.4054 O.2     
  22 C22            2.5950    -5.5407     5.4877 C.ar    
  23 C23            2.7968    -5.2608     6.8426 C.ar    
  24 C24            4.0132    -5.5746     7.4174 C.ar    
  25 N25            4.9747    -6.1293     6.7066 N.ar    
  26 C26            4.8261    -6.4095     5.4272 C.ar    
  27 C27            3.6403    -6.1346     4.7739 C.ar    
  28 H28           -1.2931     2.1849     0.6496 H       
  29 H29           -1.0989    -0.2578     0.4068 H       
  30 H30            2.9579     2.5122     0.7562 H       
  31 H31            3.1522     0.0700     0.5089 H       
  32 H32           -0.2262    -2.4059     3.3287 H       
  33 H33           -0.8967    -2.9028     1.7531 H       
  34 H34            3.2910    -2.5897     1.8534 H       
  35 H35            2.4799    -2.2036     3.3935 H       
  36 H36            2.7093    -4.9334     2.0475 H       
  37 H37            3.3847    -4.4392     3.6219 H       
  38 H38           -0.8000    -4.7472     3.5217 H       
  39 H39            0.0160    -5.1378     1.9853 H       
  40 H40            2.0137    -4.8058     7.4309 H       
  41 H41            4.1787    -5.3623     8.4633 H       
  42 H42            5.6409    -6.8641     4.8833 H       
  43 H43            3.5253    -6.3672     3.7255 H       
@<TRIPOS>BOND
   1    1    2 ar
   2    1    3 ar
   3    1   28 1
   4    2    6 ar
   5    2   29 1
   6    3    4 ar
   7    3   16 1
   8    4    5 ar
   9    4   30 1
  10    5    6 ar
  11    5   31 1
  12    6    7 1
  13    7    8 2
  14    7    9 2
  15    7   10 am
  16   10   11 1
  17   10   12 1
  18   11   15 1
  19   11   32 1
  20   11   33 1
  21   12   13 1
  22   12   34 1
  23   12   35 1
  24   13   14 1
  25   13   36 1
  26   13   37 1
  27   14   15 1
  28   14   20 am
  29   15   38 1
  30   15   39 1
  31   16   17 1
  32   16   18 1
  33   16   19 1
  34   20   21 2
  35   20   22 1
  36   22   23 ar
  37   22   27 ar
  38   23   24 ar
  39   23   40 1
  40   24   25 ar
  41   24   41 1
  42   25   26 ar
  43   26   27 ar
  44   26   42 1
  45   27   43 1

#	End of record

