#	Name: ASD03430415
#	Creating user name:	WinNT
#	Creation time:	15. 06. 2019 20:41

#	Modifying user name:	WinNT
#	Modification time:	15. 06. 2019 20:41

#	Program:	/corina/corina34_cracker 3.40 0067  02.08.2006

@<TRIPOS>MOLECULE
ASD03430415
  60   65    0    0    0
SMALL
NO_CHARGES


@<TRIPOS>ATOM
   1 N1            -0.0157     1.4932     0.4902 N.am    
   2 C2             0.0409     0.2263     0.9344 C.2     
   3 C3             1.4804    -0.0488     1.3139 C.3     
   4 C4             2.1944     1.2486     1.0120 C.ar    
   5 C5             3.5067     1.6460     1.1357 C.ar    
   6 C6             3.8770     2.9284     0.7700 C.ar    
   7 C7             2.9262     3.8060     0.2815 C.ar    
   8 C8             1.6106     3.4104     0.1566 C.ar    
   9 C9             1.2302     2.1206     0.5228 C.ar    
  10 O10           -0.8869    -0.5506     1.0164 O.2     
  11 O11            1.8730    -1.2874     6.8024 O.3     
  12 C12            0.6338    -1.4900     7.4847 C.3     
  13 C13            0.0408    -0.1630     7.9313 C.3     
  14 C14           -0.3421     0.7244     6.7573 C.3     
  15 O15            0.8163     1.1108     6.0150 O.3     
  16 C16            1.2457     0.2206     5.0725 C.ar    
  17 C17            1.7812    -0.9956     5.4725 C.ar    
  18 C18            1.1480     0.5285     3.7267 C.ar    
  19 C19            1.5858    -0.3807     2.7801 C.ar    
  20 C20            2.1209    -1.5966     3.1773 C.ar    
  21 C21            2.2196    -1.9061     4.5267 C.ar    
  22 O22            2.5491    -2.4874     2.2434 O.3     
  23 C23           -1.2434     2.1395     0.0197 C.3     
  24 C24           -0.9991     2.7578    -1.3327 C.ar    
  25 C25           -1.5150     4.0065    -1.6251 C.ar    
  26 C26           -1.2909     4.5737    -2.8657 C.ar    
  27 C27           -0.5505     3.8925    -3.8136 C.ar    
  28 C28           -0.0338     2.6442    -3.5208 C.ar    
  29 C29           -0.2542     2.0788    -2.2788 C.ar    
  30 C30           -2.3417     1.1132    -0.0882 C.ar    
  31 C31           -3.4804     1.2356     0.6859 C.ar    
  32 C32           -4.4879     0.2942     0.5870 C.ar    
  33 C33           -4.3568    -0.7692    -0.2864 C.ar    
  34 C34           -3.2185    -0.8911    -1.0612 C.ar    
  35 C35           -2.2129     0.0527    -0.9654 C.ar    
  36 H36            1.8871    -0.8585     0.7079 H       
  37 H37            4.2463     0.9579     1.5179 H       
  38 H38            4.9056     3.2431     0.8662 H       
  39 H39            3.2153     4.8068    -0.0034 H       
  40 H40            0.8740     4.1015    -0.2257 H       
  41 H41           -0.0669    -1.9889     6.8152 H       
  42 H42            0.8040    -2.1191     8.3584 H       
  43 H43           -0.8481    -0.3576     8.5314 H       
  44 H44            0.7720     0.3614     8.5465 H       
  45 H45           -1.0224     0.1796     6.1027 H       
  46 H46           -0.8431     1.6174     7.1310 H       
  47 H47            0.7313     1.4754     3.4165 H       
  48 H48            2.6361    -2.8530     4.8373 H       
  49 H49            3.4783    -2.3829     1.9971 H       
  50 H50           -1.5392     2.9153     0.7259 H       
  51 H51           -2.0935     4.5388    -0.8845 H       
  52 H52           -1.6946     5.5490    -3.0944 H       
  53 H53           -0.3760     4.3353    -4.7831 H       
  54 H54            0.5444     2.1118    -4.2615 H       
  55 H55            0.1526     1.1052    -2.0487 H       
  56 H56           -3.5828     2.0664     1.3683 H       
  57 H57           -5.3772     0.3894     1.1923 H       
  58 H58           -5.1436    -1.5051    -0.3632 H       
  59 H59           -3.1159    -1.7221    -1.7433 H       
  60 H60           -1.3252    -0.0405    -1.5734 H       
@<TRIPOS>BOND
   1    1    2 am
   2    1    9 1
   3    1   23 1
   4    2    3 1
   5    2   10 2
   6    3    4 1
   7    3   19 1
   8    3   36 1
   9    4    5 ar
  10    4    9 ar
  11    5    6 ar
  12    5   37 1
  13    6    7 ar
  14    6   38 1
  15    7    8 ar
  16    7   39 1
  17    8    9 ar
  18    8   40 1
  19   11   12 1
  20   11   17 1
  21   12   13 1
  22   12   41 1
  23   12   42 1
  24   13   14 1
  25   13   43 1
  26   13   44 1
  27   14   15 1
  28   14   45 1
  29   14   46 1
  30   15   16 1
  31   16   17 ar
  32   16   18 ar
  33   17   21 ar
  34   18   19 ar
  35   18   47 1
  36   19   20 ar
  37   20   21 ar
  38   20   22 1
  39   21   48 1
  40   22   49 1
  41   23   24 1
  42   23   30 1
  43   23   50 1
  44   24   25 ar
  45   24   29 ar
  46   25   26 ar
  47   25   51 1
  48   26   27 ar
  49   26   52 1
  50   27   28 ar
  51   27   53 1
  52   28   29 ar
  53   28   54 1
  54   29   55 1
  55   30   31 ar
  56   30   35 ar
  57   31   32 ar
  58   31   56 1
  59   32   33 ar
  60   32   57 1
  61   33   34 ar
  62   33   58 1
  63   34   35 ar
  64   34   59 1
  65   35   60 1

#	End of record

