#	Name: ASD03180075
#	Creating user name:	WinNT
#	Creation time:	15. 06. 2019 20:33

#	Modifying user name:	WinNT
#	Modification time:	15. 06. 2019 20:33

#	Program:	/corina/corina34_cracker 3.40 0067  02.08.2006

@<TRIPOS>MOLECULE
ASD03180075
  45   48    0    0    0
SMALL
NO_CHARGES


@<TRIPOS>ATOM
   1 C1            -0.2268     0.9375     0.3658 C.ar    
   2 C2            -0.0631    -0.4316     0.2615 C.ar    
   3 C3             1.1987    -0.9699     0.0893 C.ar    
   4 C4             2.3047    -0.1362     0.0203 C.ar    
   5 C5             2.1395     1.2449     0.1251 C.ar    
   6 C6             0.8701     1.7761     0.2981 C.ar    
   7 N7             3.5831    -0.6789    -0.1535 N.3     
   8 C8             4.1448    -0.2970    -1.4573 C.3     
   9 C9             5.5630    -0.8604    -1.5807 C.3     
  10 O10            5.5242    -2.2788    -1.4024 O.3     
  11 C11            4.9833    -2.6862    -0.1427 C.3     
  12 C12            3.5592    -2.1413    -0.0048 C.3     
  13 N13            3.2522     2.0926     0.0567 N.pl3   
  14 C14            3.1399     3.3363    -0.5439 C.2     
  15 S15            1.7186     3.9278    -1.3985 S.3     
  16 C16            2.5458     5.4477    -1.7299 C.2     
  17 C17            3.7769     5.3853    -1.1897 C.2     
  18 N18            4.0637     4.2471    -0.5586 N.2     
  19 C19            4.7412     6.5028    -1.2852 C.2     
  20 C20            6.0383     8.5616    -1.6610 C.2     
  21 N21            6.6498     7.6373    -0.9999 N.2     
  22 C22            5.9925     6.5194    -0.7780 C.2     
  23 S23            4.4649     8.0470    -2.0876 S.3     
  24 C24            6.5849     5.3578    -0.0225 C.3     
  25 C25            6.6283     9.9039    -2.0091 C.3     
  26 H26           -1.2151     1.3531     0.4960 H       
  27 H27           -0.9233    -1.0823     0.3150 H       
  28 H28            1.3230    -2.0397     0.0089 H       
  29 H29            0.7385     2.8450     0.3797 H       
  30 H30            3.5217    -0.7018    -2.2548 H       
  31 H31            4.1768     0.7897    -1.5356 H       
  32 H32            5.9622    -0.6284    -2.5681 H       
  33 H33            6.1995    -0.4147    -0.8162 H       
  34 H34            4.9632    -3.7748    -0.0902 H       
  35 H35            5.6029    -2.2936     0.6636 H       
  36 H36            3.1637    -2.4009     0.9772 H       
  37 H37            2.9267    -2.5756    -0.7790 H       
  38 H38            4.1015     1.8091     0.4297 H       
  39 H39            2.1355     6.2856    -2.2739 H       
  40 H40            6.3659     5.4656     1.0398 H       
  41 H41            6.1527     4.4270    -0.3900 H       
  42 H42            7.6646     5.3405    -0.1709 H       
  43 H43            7.1341     9.8396    -2.9725 H       
  44 H44            5.8328    10.6469    -2.0653 H       
  45 H45            7.3448    10.1960    -1.2414 H       
@<TRIPOS>BOND
   1    1    2 ar
   2    1    6 ar
   3    1   26 1
   4    2    3 ar
   5    2   27 1
   6    3    4 ar
   7    3   28 1
   8    4    5 ar
   9    4    7 1
  10    5    6 ar
  11    5   13 1
  12    6   29 1
  13    7    8 1
  14    7   12 1
  15    8    9 1
  16    8   30 1
  17    8   31 1
  18    9   10 1
  19    9   32 1
  20    9   33 1
  21   10   11 1
  22   11   12 1
  23   11   34 1
  24   11   35 1
  25   12   36 1
  26   12   37 1
  27   13   14 1
  28   13   38 1
  29   14   15 1
  30   14   18 2
  31   15   16 1
  32   16   17 2
  33   16   39 1
  34   17   18 1
  35   17   19 1
  36   19   23 1
  37   19   22 2
  38   20   21 2
  39   20   23 1
  40   20   25 1
  41   21   22 1
  42   22   24 1
  43   24   40 1
  44   24   41 1
  45   24   42 1
  46   25   43 1
  47   25   44 1
  48   25   45 1

#	End of record

