#	Name: ASD03090831
#	Creating user name:	WinNT
#	Creation time:	15. 06. 2019 20:29

#	Modifying user name:	WinNT
#	Modification time:	15. 06. 2019 20:29

#	Program:	/corina/corina34_cracker 3.40 0067  02.08.2006

@<TRIPOS>MOLECULE
ASD03090831
  43   46    0    0    0
SMALL
NO_CHARGES


@<TRIPOS>ATOM
   1 C1            -0.0183     1.5030     0.0798 C.2     
   2 C2             0.0022    -0.0037     0.1000 C.3     
   3 O3             1.0269     2.1255     0.0695 O.2     
   4 N4            -1.1762     2.1507     0.0679 N.2     
   5 S5             0.1650     4.5422     0.0393 S.3     
   6 C6            -1.1944     3.4850     0.0500 C.2     
   7 N7            -2.2863     4.2876     0.0362 N.pl3   
   8 C8            -2.0655     5.6297     0.0185 C.2     
   9 C9            -0.7996     6.0286     0.0165 C.2     
  10 C10           -0.2900     7.4467    -0.0014 C.3     
  11 N11            0.4235     7.7265     1.2518 N.3     
  12 C12            1.1377     9.0142     1.1770 C.3     
  13 C13            0.6330     9.8855     2.3465 C.3     
  14 C14            0.0819     8.8384     3.3499 C.3     
  15 C15           -0.5124     7.7729     2.3954 C.3     
  16 O16           -7.2948     1.9665     0.0269 O.3     
  17 C17           -6.8723     0.6193     0.3090 C.3     
  18 O18           -5.5120     0.5817    -0.1614 O.3     
  19 C19           -5.0583     1.8659    -0.0682 C.ar    
  20 C20           -6.1546     2.7180     0.0476 C.ar    
  21 C21           -3.7761     2.3878    -0.0719 C.ar    
  22 C22           -3.5847     3.7585     0.0394 C.ar    
  23 C23           -4.6787     4.6050     0.1545 C.ar    
  24 C24           -5.9592     4.0850     0.1578 C.ar    
  25 F25           -6.9242     0.3655     1.6838 F       
  26 F26           -7.6602    -0.3000    -0.3920 F       
  27 H27            1.0347    -0.3530     0.1027 H       
  28 H28           -0.5050    -0.3620     0.9958 H       
  29 H29           -0.5084    -0.3858    -0.7840 H       
  30 H30           -2.8815     6.3371     0.0063 H       
  31 H31            0.3895     7.5780    -0.8435 H       
  32 H32           -1.1304     8.1335    -0.1022 H       
  33 H33            2.2108     8.8493     1.2737 H       
  34 H34            0.9197     9.5046     0.2283 H       
  35 H35            1.4541    10.4490     2.7896 H       
  36 H36           -0.1601    10.5552     2.0138 H       
  37 H37            0.8848     8.4167     3.9545 H       
  38 H38           -0.6933     9.2729     3.9812 H       
  39 H39           -1.5052     8.0742     2.0612 H       
  40 H40           -0.5558     6.8025     2.8898 H       
  41 H41           -2.9250     1.7290    -0.1613 H       
  42 H42           -4.5292     5.6710     0.2410 H       
  43 H43           -6.8090     4.7455     0.2476 H       
@<TRIPOS>BOND
   1    1    2 1
   2    1    3 2
   3    1    4 1
   4    2   27 1
   5    2   28 1
   6    2   29 1
   7    4    6 2
   8    5    6 1
   9    5    9 1
  10    6    7 1
  11    7    8 1
  12    7   22 1
  13    8    9 2
  14    8   30 1
  15    9   10 1
  16   10   11 1
  17   10   31 1
  18   10   32 1
  19   11   12 1
  20   11   15 1
  21   12   13 1
  22   12   33 1
  23   12   34 1
  24   13   14 1
  25   13   35 1
  26   13   36 1
  27   14   15 1
  28   14   37 1
  29   14   38 1
  30   15   39 1
  31   15   40 1
  32   16   17 1
  33   16   20 1
  34   17   18 1
  35   17   25 1
  36   17   26 1
  37   18   19 1
  38   19   20 ar
  39   19   21 ar
  40   20   24 ar
  41   21   22 ar
  42   21   41 1
  43   22   23 ar
  44   23   24 ar
  45   23   42 1
  46   24   43 1

#	End of record

