#	Name: ASD04560162
#	Creating user name:	WinNT
#	Creation time:	15. 06. 2019 20:49

#	Modifying user name:	WinNT
#	Modification time:	15. 06. 2019 20:49

#	Program:	/corina/corina34_cracker 3.40 0067  02.08.2006

@<TRIPOS>MOLECULE
ASD04560162
  47   49    0    0    0
SMALL
NO_CHARGES


@<TRIPOS>ATOM
   1 C1            -0.1224     1.5352     0.3855 C.ar    
   2 C2            -0.1404     0.1646     0.3935 C.ar    
   3 C3             1.0471    -0.5499     0.2529 C.ar    
   4 C4             2.2563     0.1257     0.1042 C.ar    
   5 C5             2.2807     1.4963     0.0958 C.ar    
   6 C6             1.0899     2.2163     0.2359 C.ar    
   7 C7             1.1128     3.6905     0.2273 C.2     
   8 O8             2.1677     4.2815     0.0983 O.2     
   9 N9            -0.0355     4.3830     0.3624 N.am    
  10 C10           -0.0029     5.7717     0.4692 C.ar    
  11 C11           -1.0233     6.5352    -0.0901 C.ar    
  12 C12            1.0821     7.7636     1.2479 C.ar    
  13 C13            1.0470     6.3920     1.1400 C.ar    
  14 S14            1.0199    -2.3117     0.2638 S.3     
  15 C15           -0.9941     7.9073     0.0132 C.ar    
  16 C16            0.0621     8.5341     0.6815 C.ar    
  17 C17            0.0968    10.0039     0.7942 C.2     
  18 C18            2.7681    -2.7482     0.0541 C.3     
  19 C19            2.9135    -4.2481     0.0429 C.ar    
  20 C20            2.7391    -4.9576    -1.1439 C.ar    
  21 C21            3.2252    -4.9210     1.2067 C.ar    
  22 C22            2.8756    -6.3450    -1.1471 C.ar    
  23 C23            3.1822    -7.0080     0.0231 C.ar    
  24 C24            3.3594    -6.2980     1.1977 C.ar    
  25 B25            2.3897    -4.1972    -2.4723 Du      
  26 O26            2.7137    -4.7760    -3.7279 O.3     
  27 O27            1.7498    -2.9308    -2.4182 O.3     
  28 O28            1.1154    10.6063     1.4386 O.3     
  29 O29           -0.7931    10.6718     0.3060 O.2     
  30 H30           -1.0439     2.0886     0.4901 H       
  31 H31           -1.0763    -0.3619     0.5094 H       
  32 H32            3.1754    -0.4309    -0.0043 H       
  33 H33            3.2185     2.0195    -0.0188 H       
  34 H34           -0.8846     3.9146     0.3851 H       
  35 H35           -1.8388     6.0504    -0.6061 H       
  36 H36            1.8969     8.2443     1.7689 H       
  37 H37            1.8349     5.7962     1.5767 H       
  38 H38           -1.7859     8.4992    -0.4217 H       
  39 H39            3.1338    -2.3406    -0.8884 H       
  40 H40            3.3476    -2.3331     0.8787 H       
  41 H41            3.3649    -4.3718     2.1260 H       
  42 H42            2.7412    -6.8997    -2.0640 H       
  43 H43            3.2882    -8.0828     0.0218 H       
  44 H44            3.5994    -6.8211     2.1116 H       
  45 H45            2.4601    -4.2344    -4.4878 H       
  46 H46            1.5754    -2.5408    -3.2858 H       
  47 H47            1.0947    11.5719     1.4867 H       
@<TRIPOS>BOND
   1    1    2 ar
   2    1    6 ar
   3    1   30 1
   4    2    3 ar
   5    2   31 1
   6    3    4 ar
   7    3   14 1
   8    4    5 ar
   9    4   32 1
  10    5    6 ar
  11    5   33 1
  12    6    7 1
  13    7    8 2
  14    7    9 am
  15    9   10 1
  16    9   34 1
  17   10   11 ar
  18   10   13 ar
  19   11   15 ar
  20   11   35 1
  21   12   13 ar
  22   12   16 ar
  23   12   36 1
  24   13   37 1
  25   14   18 1
  26   15   16 ar
  27   15   38 1
  28   16   17 1
  29   17   28 1
  30   17   29 2
  31   18   19 1
  32   18   39 1
  33   18   40 1
  34   19   20 ar
  35   19   21 ar
  36   20   25 1
  37   20   22 ar
  38   21   24 ar
  39   21   41 1
  40   22   23 ar
  41   22   42 1
  42   23   24 ar
  43   23   43 1
  44   24   44 1
  45   25   26 1
  46   25   27 1
  47   26   45 1
  48   27   46 1
  49   28   47 1

#	End of record

