#	Name: ASD05130064
#	Creating user name:	WinNT
#	Creation time:	15. 06. 2019 20:56

#	Modifying user name:	WinNT
#	Modification time:	15. 06. 2019 20:56

#	Program:	/corina/corina34_cracker 3.40 0067  02.08.2006

@<TRIPOS>MOLECULE
ASD05130064
  57   60    0    0    0
SMALL
NO_CHARGES


@<TRIPOS>ATOM
   1 N1             0.2027     1.2284     0.2284 N.am    
   2 C2             0.6644     0.2246     1.0003 C.2     
   3 O3             1.7832     0.2861     1.4727 O.2     
   4 N4            -0.1140    -0.8473     1.2487 N.am    
   5 C5             0.4012    -1.9362     1.9607 C.ar    
   6 C6            -0.4251    -2.6727     2.7989 C.ar    
   7 C7             0.0873    -3.7487     3.5008 C.ar    
   8 C8             1.4232    -4.0906     3.3672 C.ar    
   9 C9             2.2465    -3.3577     2.5333 C.ar    
  10 C10            1.7384    -2.2856     1.8256 C.ar    
  11 F11           -0.7150    -4.4663     4.3172 F       
  12 C12            0.9763     2.3827     0.0430 C.ar    
  13 C13            0.3556     3.6041    -0.2010 C.ar    
  14 C14            1.1152     4.7459    -0.3846 C.ar    
  15 C15            2.4949     4.6790    -0.3266 C.ar    
  16 C16            3.1243     3.4569    -0.0818 C.ar    
  17 C17            2.3577     2.3081     0.1083 C.ar    
  18 N18            6.6617     3.8188     1.2139 N.am    
  19 C19            5.3172     3.8872     1.1557 C.2     
  20 C20            4.6027     3.3822    -0.0191 C.2     
  21 C21            5.3095     2.8408    -1.0579 C.2     
  22 C22            6.7209     2.7807    -0.9733 C.ar    
  23 C23            7.4839     2.2353    -2.0130 C.ar    
  24 N24            8.7948     2.1870    -1.9184 N.ar    
  25 C25            9.4453     2.6443    -0.8538 C.ar    
  26 C26            8.7667     3.2009     0.2211 C.ar    
  27 C27            7.3797     3.2762     0.1732 C.ar    
  28 O28            4.6934     4.3697     2.0841 O.2     
  29 N29           10.8297     2.5635    -0.8160 N.pl3   
  30 C30           11.5611     3.0634     0.3507 C.3     
  31 C31            7.3650     4.3328     2.3918 C.3     
  32 C32            7.0602     5.8229     2.5579 C.3     
  33 C33            6.8976     3.5748     3.6359 C.3     
  34 F34            3.2338     5.7955    -0.5072 F       
  35 F35           -0.9923     3.6751    -0.2591 F       
  36 H36           -0.6630     1.1504    -0.2020 H       
  37 H37           -1.0313    -0.8638     0.9339 H       
  38 H38           -1.4663    -2.4056     2.9030 H       
  39 H39            1.8220    -4.9311     3.9158 H       
  40 H40            3.2876    -3.6263     2.4314 H       
  41 H41            2.3818    -1.7168     1.1707 H       
  42 H42            0.6292     5.6916    -0.5741 H       
  43 H43            2.8401     1.3614     0.3020 H       
  44 H44            4.7971     2.4639    -1.9308 H       
  45 H45            6.9940     1.8524    -2.8960 H       
  46 H46            9.3073     3.5693     1.0804 H       
  47 H47           11.3135     2.1759    -1.5622 H       
  48 H48           11.3558     4.1260     0.4803 H       
  49 H49           11.2412     2.5204     1.2401 H       
  50 H50           12.6305     2.9157     0.1999 H       
  51 H51            8.4384     4.1936     2.2634 H       
  52 H52            5.9868     5.9621     2.6862 H       
  53 H53            7.5835     6.2053     3.4343 H       
  54 H54            7.3932     6.3629     1.6715 H       
  55 H55            7.1148     2.5133     3.5176 H       
  56 H56            7.4209     3.9573     4.5123 H       
  57 H57            5.8242     3.7140     3.7643 H       
@<TRIPOS>BOND
   1    1    2 am
   2    1   12 1
   3    1   36 1
   4    2    3 2
   5    2    4 am
   6    4    5 1
   7    4   37 1
   8    5    6 ar
   9    5   10 ar
  10    6    7 ar
  11    6   38 1
  12    7    8 ar
  13    7   11 1
  14    8    9 ar
  15    8   39 1
  16    9   10 ar
  17    9   40 1
  18   10   41 1
  19   12   13 ar
  20   12   17 ar
  21   13   14 ar
  22   13   35 1
  23   14   15 ar
  24   14   42 1
  25   15   16 ar
  26   15   34 1
  27   16   17 ar
  28   16   20 1
  29   17   43 1
  30   18   19 am
  31   18   27 1
  32   18   31 1
  33   19   20 1
  34   19   28 2
  35   20   21 2
  36   21   22 1
  37   21   44 1
  38   22   23 ar
  39   22   27 ar
  40   23   24 ar
  41   23   45 1
  42   24   25 ar
  43   25   26 ar
  44   25   29 1
  45   26   27 ar
  46   26   46 1
  47   29   30 1
  48   29   47 1
  49   30   48 1
  50   30   49 1
  51   30   50 1
  52   31   32 1
  53   31   33 1
  54   31   51 1
  55   32   52 1
  56   32   53 1
  57   32   54 1
  58   33   55 1
  59   33   56 1
  60   33   57 1

#	End of record

