#	Name: ASD01030045
#	Creating user name:	WinNT
#	Creation time:	15. 06. 2019 18:58

#	Modifying user name:	WinNT
#	Modification time:	15. 06. 2019 18:58

#	Program:	/corina/corina34_cracker 3.40 0067  02.08.2006

@<TRIPOS>MOLECULE
ASD01030045
  99  106    0    0    0
SMALL
NO_CHARGES


@<TRIPOS>ATOM
   1 C1             0.7626     1.5806    -0.6297 C.3     
   2 C2             0.8407     0.0497    -0.6701 C.3     
   3 C3             1.7833    -0.3894    -1.7825 C.3     
   4 C4             3.1877     0.1517    -1.6010 C.3     
   5 C5             3.2273     1.6557    -1.4278 C.3     
   6 C6             2.1713     2.1226    -0.4174 C.3     
   7 C7             2.3564     3.5295     0.1520 C.3     
   8 C8             4.5927     2.1047    -0.8837 C.3     
   9 C9             4.6069     3.6108    -0.8106 C.2     
  10 C10            3.5729     4.2793    -0.3556 C.2     
  11 C11            1.2080     5.8114     0.2912 C.3     
  12 C12            1.1258     4.3135     0.5941 C.3     
  13 C13            2.5939     6.2725     0.7070 C.3     
  14 C14            2.8829     7.7598     0.6382 C.3     
  15 C15            3.5466     5.7615    -0.4183 C.3     
  16 C16            4.8471     6.5243    -0.1795 C.3     
  17 C17            4.4226     7.8002     0.5656 C.3     
  18 C18            2.6657     2.2922     1.0231 C.3     
  19 O19            1.8375    -1.8172    -1.8056 O.3     
  20 C20            3.8111    -0.5022    -0.3662 C.3     
  21 O21            5.4643     6.8573    -1.4246 O.3     
  22 H22            3.0466     2.1363    -2.3893 H       
  23 C23            2.9837     6.1921    -1.7743 C.3     
  24 H24            2.5168     8.1061    -0.3283 H       
  25 C25            4.0221    -0.2245    -2.8269 C.3     
  26 C26            0.8591    -2.4223    -2.6532 C.3     
  27 O27           -0.4474    -2.1537    -2.1403 O.3     
  28 C28           -1.5074    -2.6949    -2.9313 C.3     
  29 C29           -1.3743    -4.2190    -2.9863 C.3     
  30 C30           -0.0010    -4.5834    -3.5587 C.3     
  31 C31            1.0873    -3.9355    -2.6971 C.3     
  32 O32           -2.3990    -4.7579    -3.8239 O.3     
  33 O33            0.1610    -6.0031    -3.5455 O.3     
  34 O34            2.3705    -4.2087    -3.2635 O.3     
  35 C35            2.9714     5.7035     2.0763 C.3     
  36 O36            0.2149     6.5155     1.0396 O.3     
  37 C37            2.2843     8.6432     1.6751 C.3     
  38 C38            3.2209     9.1168     2.7695 C.3     
  39 C39            4.6596     9.1265     2.3406 C.3     
  40 O40            4.9627     7.7769     1.8995 O.3     
  41 O41            4.8328     9.0225    -0.0281 O.3     
  42 C42            4.8595     9.9711     1.0664 C.3     
  43 H43            5.3164     9.4399     3.1520 H       
  44 C44            1.7066     9.8754     0.9758 C.3     
  45 H45            4.0498    10.6930     0.9607 H       
  46 C46            6.2095    10.6897     1.1128 C.3     
  47 C47            6.3885    11.5213    -0.1589 C.3     
  48 C48            6.2559    11.6096     2.3345 C.3     
  49 O49            7.2598     9.7249     1.2028 O.3     
  50 H50            0.3632     1.9536    -1.5728 H       
  51 H51            0.1198     1.8945     0.1927 H       
  52 H52            1.2116    -0.3196     0.2860 H       
  53 H53           -0.1528    -0.3591    -0.8546 H       
  54 H54            1.3906    -0.0380    -2.7366 H       
  55 H55            4.7450     1.6883     0.1120 H       
  56 H56            5.3834     1.7630    -1.5516 H       
  57 H57            5.4839     4.1493    -1.1382 H       
  58 H58            1.0630     5.9837    -0.7753 H       
  59 H59            0.2515     3.9034     0.0885 H       
  60 H60            0.9965     4.1820     1.6684 H       
  61 H61            5.5268     5.9329     0.4340 H       
  62 H62            1.9684     2.0545     1.8265 H       
  63 H63            3.7128     2.0679     1.2262 H       
  64 H64            3.8464    -1.5826    -0.5060 H       
  65 H65            4.8224    -0.1209    -0.2247 H       
  66 H66            3.2087    -0.2690     0.5117 H       
  67 H67            6.2954     7.3435    -1.3340 H       
  68 H68            2.0475     5.6666    -1.9625 H       
  69 H69            2.8022     7.2668    -1.7676 H       
  70 H70            3.7005     5.9495    -2.5588 H       
  71 H71            3.5716     0.2086    -3.7200 H       
  72 H72            5.0354     0.1594    -2.7085 H       
  73 H73            4.0539    -1.3096    -2.9258 H       
  74 H74            0.9460    -2.0121    -3.6593 H       
  75 H75           -2.4659    -2.4296    -2.4850 H       
  76 H76           -1.4515    -2.2884    -3.9411 H       
  77 H77           -1.4706    -4.6296    -1.9812 H       
  78 H78            0.0769    -4.2157    -4.5818 H       
  79 H79            1.0407    -4.3404    -1.6862 H       
  80 H80           -3.2967    -4.5611    -3.5233 H       
  81 H81           -0.5000    -6.4792    -4.0666 H       
  82 H82            3.1080    -3.8235    -2.7707 H       
  83 H83            2.9754     4.6146     2.0286 H       
  84 H84            3.9631     6.0587     2.3565 H       
  85 H85            2.2445     6.0320     2.8191 H       
  86 H86           -0.6917     6.2393     0.8474 H       
  87 H87            1.4589     8.1068     2.1430 H       
  88 H88            2.9381    10.1276     3.0635 H       
  89 H89            3.1178     8.4583     3.6320 H       
  90 H90            0.8617     9.5779     0.3547 H       
  91 H91            1.3723    10.5943     1.7238 H       
  92 H92            2.4742    10.3318     0.3508 H       
  93 H93            5.5874    12.2572    -0.2275 H       
  94 H94            7.3503    12.0332    -0.1258 H       
  95 H95            6.3555    10.8659    -1.0292 H       
  96 H96            6.1284    11.0171     3.2405 H       
  97 H97            7.2177    12.1215     2.3675 H       
  98 H98            5.4548    12.3455     2.2658 H       
  99 H99            7.2909     9.1068     0.4598 H       
@<TRIPOS>BOND
   1    1    2 1
   2    1    6 1
   3    1   50 1
   4    1   51 1
   5    2    3 1
   6    2   52 1
   7    2   53 1
   8    3    4 1
   9    3   19 1
  10    3   54 1
  11    4    5 1
  12    4   20 1
  13    4   25 1
  14    5    6 1
  15    5    8 1
  16    5   22 1
  17    6    7 1
  18    6   18 1
  19    7   10 1
  20    7   12 1
  21    7   18 1
  22    8    9 1
  23    8   55 1
  24    8   56 1
  25    9   10 2
  26    9   57 1
  27   10   15 1
  28   11   12 1
  29   11   13 1
  30   11   36 1
  31   11   58 1
  32   12   59 1
  33   12   60 1
  34   13   14 1
  35   13   35 1
  36   13   15 1
  37   14   24 1
  38   14   17 1
  39   14   37 1
  40   15   23 1
  41   15   16 1
  42   16   21 1
  43   16   17 1
  44   16   61 1
  45   17   40 1
  46   17   41 1
  47   18   62 1
  48   18   63 1
  49   19   26 1
  50   20   64 1
  51   20   65 1
  52   20   66 1
  53   21   67 1
  54   23   68 1
  55   23   69 1
  56   23   70 1
  57   25   71 1
  58   25   72 1
  59   25   73 1
  60   26   27 1
  61   26   31 1
  62   26   74 1
  63   27   28 1
  64   28   29 1
  65   28   75 1
  66   28   76 1
  67   29   30 1
  68   29   32 1
  69   29   77 1
  70   30   31 1
  71   30   33 1
  72   30   78 1
  73   31   34 1
  74   31   79 1
  75   32   80 1
  76   33   81 1
  77   34   82 1
  78   35   83 1
  79   35   84 1
  80   35   85 1
  81   36   86 1
  82   37   38 1
  83   37   44 1
  84   37   87 1
  85   38   39 1
  86   38   88 1
  87   38   89 1
  88   39   40 1
  89   39   42 1
  90   39   43 1
  91   41   42 1
  92   42   45 1
  93   42   46 1
  94   44   90 1
  95   44   91 1
  96   44   92 1
  97   46   47 1
  98   46   48 1
  99   46   49 1
 100   47   93 1
 101   47   94 1
 102   47   95 1
 103   48   96 1
 104   48   97 1
 105   48   98 1
 106   49   99 1

#	End of record

