#	Name: ASD00069004
#	Creating user name:	WinNT
#	Creation time:	15. 06. 2019 18:29

#	Modifying user name:	WinNT
#	Modification time:	15. 06. 2019 18:29

#	Program:	/corina/corina34_cracker 3.40 0067  02.08.2006

@<TRIPOS>MOLECULE
ASD00069004
  61   66    0    0    0
SMALL
NO_CHARGES


@<TRIPOS>ATOM
   1 C1            -0.0108     1.3869     0.0187 C.ar    
   2 C2             0.0042    -0.0075     0.0077 C.ar    
   3 C3             1.2048    -0.6915    -0.0046 C.ar    
   4 C4             2.4035     0.0240    -0.0065 C.ar    
   5 C5             2.3785     1.4302     0.0041 C.ar    
   6 C6             1.1555     2.0967     0.0169 C.ar    
   7 C7             3.8194    -0.3636    -0.0184 C.2     
   8 N8             4.5314     0.7400    -0.0147 N.2     
   9 N9             3.6851     1.8531    -0.0010 N.pl3   
  10 C10            4.3467    -1.7422    -0.0316 C.2     
  11 N11            5.6741    -2.0778    -0.0425 N.pl3   
  12 C12            5.7461    -3.4600    -0.0520 C.ar    
  13 C13            4.4182    -3.9215    -0.0462 C.ar    
  14 N14            3.6141    -2.8305    -0.0289 N.2     
  15 C15            6.7969    -4.3665    -0.0648 C.ar    
  16 C16            6.5379    -5.7200    -0.0718 C.ar    
  17 C17            5.2246    -6.1869    -0.0662 C.ar    
  18 C18            4.1670    -5.2976    -0.0534 C.ar    
  19 N19            4.9757    -7.5637    -0.0739 N.3     
  20 C20            6.2326    -8.3262    -0.0876 C.3     
  21 C21            5.9156    -9.8231    -0.0354 C.3     
  22 O22            5.0639   -10.1635    -1.1326 O.3     
  23 C23            3.8304    -9.4399    -1.1500 C.3     
  24 C24            4.1262    -7.9392    -1.2135 C.3     
  25 N25           -1.2032    -0.7179     0.0097 N.am    
  26 C26           -1.3022    -1.8804    -0.6652 C.2     
  27 C27           -2.5600    -2.7045    -0.5658 C.3     
  28 O28           -0.3790    -2.2632    -1.3524 O.2     
  29 C29           -2.4129    -3.9646    -1.4211 C.3     
  30 C30           -3.6898    -4.8013    -1.3203 C.3     
  31 C31           -3.9249    -5.1994     0.1382 C.3     
  32 C32           -4.0720    -3.9394     0.9935 C.3     
  33 C33           -2.7950    -3.1026     0.8926 C.3     
  34 F34           -5.0925    -5.9645     0.2304 F       
  35 F35           -2.8377    -5.9506     0.5976 F       
  36 H36           -0.9551     1.9110     0.0241 H       
  37 H37            1.2157    -1.7714    -0.0124 H       
  38 H38            1.1298     3.1763     0.0248 H       
  39 H39            3.9754     2.7787     0.0041 H       
  40 H40            6.4237    -1.4621    -0.0440 H       
  41 H41            7.8168    -4.0114    -0.0696 H       
  42 H42            7.3575    -6.4232    -0.0822 H       
  43 H43            3.1508    -5.6634    -0.0487 H       
  44 H44            6.7840    -8.1026    -1.0008 H       
  45 H45            6.8346    -8.0512     0.7784 H       
  46 H46            6.8418   -10.3939    -0.1029 H       
  47 H47            5.4115   -10.0559     0.9026 H       
  48 H48            3.2485    -9.7335    -2.0236 H       
  49 H49            3.2656    -9.6616    -0.2444 H       
  50 H50            3.1907    -7.3816    -1.1693 H       
  51 H51            4.6440    -7.7094    -2.1447 H       
  52 H52           -1.9680    -0.3732     0.4967 H       
  53 H53           -3.4070    -2.1193    -0.9238 H       
  54 H54           -2.2454    -3.6810    -2.4602 H       
  55 H55           -1.5658    -4.5498    -1.0632 H       
  56 H56           -4.5369    -4.2161    -1.6782 H       
  57 H57           -3.5851    -5.6990    -1.9296 H       
  58 H58           -4.9190    -3.3541     0.6355 H       
  59 H59           -4.2394    -4.2230     2.0325 H       
  60 H60           -1.9479    -3.6879     1.2506 H       
  61 H61           -2.8998    -2.2049     1.5019 H       
@<TRIPOS>BOND
   1    1    2 ar
   2    1    6 ar
   3    1   36 1
   4    2    3 ar
   5    2   25 1
   6    3    4 ar
   7    3   37 1
   8    4    5 ar
   9    4    7 1
  10    5    6 ar
  11    5    9 1
  12    6   38 1
  13    7    8 2
  14    7   10 1
  15    8    9 1
  16    9   39 1
  17   10   11 1
  18   10   14 2
  19   11   12 1
  20   11   40 1
  21   12   13 ar
  22   12   15 ar
  23   13   14 1
  24   13   18 ar
  25   15   16 ar
  26   15   41 1
  27   16   17 ar
  28   16   42 1
  29   17   18 ar
  30   17   19 1
  31   18   43 1
  32   19   20 1
  33   19   24 1
  34   20   21 1
  35   20   44 1
  36   20   45 1
  37   21   22 1
  38   21   46 1
  39   21   47 1
  40   22   23 1
  41   23   24 1
  42   23   48 1
  43   23   49 1
  44   24   50 1
  45   24   51 1
  46   25   26 am
  47   25   52 1
  48   26   27 1
  49   26   28 2
  50   27   29 1
  51   27   33 1
  52   27   53 1
  53   29   30 1
  54   29   54 1
  55   29   55 1
  56   30   31 1
  57   30   56 1
  58   30   57 1
  59   31   32 1
  60   31   34 1
  61   31   35 1
  62   32   33 1
  63   32   58 1
  64   32   59 1
  65   33   60 1
  66   33   61 1

#	End of record

