#	Name: ASD03240656
#	Creating user name:	WinNT
#	Creation time:	15. 06. 2019 20:35

#	Modifying user name:	WinNT
#	Modification time:	15. 06. 2019 20:35

#	Program:	/corina/corina34_cracker 3.40 0067  02.08.2006

@<TRIPOS>MOLECULE
ASD03240656
  60   66    0    0    0
SMALL
NO_CHARGES


@<TRIPOS>ATOM
   1 C1            -0.1174     1.8403    -0.0523 C.ar    
   2 C2            -0.2356     0.4678     0.0223 C.ar    
   3 N3             0.8328    -0.3039     0.0875 N.ar    
   4 C4             2.0605     0.1976     0.0850 C.ar    
   5 C5             2.2544     1.5747    -0.0027 C.ar    
   6 C6             1.1481     2.4120    -0.0660 C.ar    
   7 N7             3.1461    -0.6674     0.1921 N.pl3   
   8 C8             4.0018    -0.6005     1.2882 C.ar    
   9 C9             4.7476     0.5563     1.5386 C.ar    
  10 C10            4.6561     1.7131     0.6210 C.2     
  11 N11            3.5405     2.1315    -0.0462 N.pl3   
  12 C12            4.1166    -1.6882     2.1436 C.ar    
  13 C13            4.9548    -1.6207     3.2401 C.ar    
  14 C14            5.6848    -0.4725     3.4951 C.ar    
  15 C15            5.5857     0.6157     2.6518 C.ar    
  16 N16            5.6600     2.5113     0.3175 N.2     
  17 C17            5.2454     3.4537    -0.5431 C.2     
  18 C18            3.9010     3.2353    -0.7934 C.2     
  19 C19            3.0276     4.0253    -1.6825 C.ar    
  20 C20            2.9114     5.4064    -1.5061 C.ar    
  21 C21            2.3174     3.3966    -2.7083 C.ar    
  22 C22            1.5033     4.1414    -3.5358 C.ar    
  23 C23            1.3890     5.5082    -3.3519 C.ar    
  24 C24            2.0935     6.1384    -2.3412 C.ar    
  25 C25            6.0767     4.5348    -1.1214 C.ar    
  26 C26            0.4974     6.3150    -4.2602 C.3     
  27 C27            6.9069     5.2979    -0.2976 C.ar    
  28 N28           -0.4882     5.4902    -4.9718 N.3     
  29 C29           -0.1105     7.5552    -3.5840 C.3     
  30 C30            0.1419     8.3019    -4.9044 C.3     
  31 C31            1.2648     7.2860    -5.1730 C.3     
  32 C32            7.6802     6.3048    -0.8445 C.ar    
  33 C33            7.6316     6.5562    -2.2035 C.ar    
  34 C34            6.8102     5.8032    -3.0238 C.ar    
  35 C35            6.0380     4.7911    -2.4916 C.ar    
  36 F36            6.9539     5.0531     1.0302 F       
  37 H37           -0.9986     2.4626    -0.1039 H       
  38 H38           -1.2175     0.0181     0.0277 H       
  39 H39            1.2693     3.4835    -0.1252 H       
  40 H40            3.3077    -1.3234    -0.5039 H       
  41 H41            3.5500    -2.5875     1.9521 H       
  42 H42            5.0413    -2.4695     3.9022 H       
  43 H43            6.3338    -0.4279     4.3572 H       
  44 H44            6.1561     1.5104     2.8530 H       
  45 H45            3.4603     5.8995    -0.7175 H       
  46 H46            2.4060     2.3300    -2.8532 H       
  47 H47            0.9540     3.6568    -4.3294 H       
  48 H48            1.9994     7.2054    -2.2034 H       
  49 H49           -0.0445     4.7029    -5.4204 H       
  50 H50           -1.2216     5.1856    -4.3494 H       
  51 H51           -1.1671     7.4454    -3.3395 H       
  52 H52            0.4812     7.9316    -2.7495 H       
  53 H53           -0.6863     8.2338    -5.6097 H       
  54 H54            0.4999     9.3223    -4.7675 H       
  55 H55            2.2324     7.5888    -4.7730 H       
  56 H56            1.3185     6.9589    -6.2114 H       
  57 H57            8.3230     6.8962    -0.2094 H       
  58 H58            8.2372     7.3441    -2.6264 H       
  59 H59            6.7769     6.0051    -4.0842 H       
  60 H60            5.3979     4.2044    -3.1338 H       
@<TRIPOS>BOND
   1    1    2 ar
   2    1    6 ar
   3    1   37 1
   4    2    3 ar
   5    2   38 1
   6    3    4 ar
   7    4    5 ar
   8    4    7 1
   9    5    6 ar
  10    5   11 1
  11    6   39 1
  12    7    8 1
  13    7   40 1
  14    8    9 ar
  15    8   12 ar
  16    9   10 1
  17    9   15 ar
  18   10   11 1
  19   10   16 2
  20   11   18 1
  21   12   13 ar
  22   12   41 1
  23   13   14 ar
  24   13   42 1
  25   14   15 ar
  26   14   43 1
  27   15   44 1
  28   16   17 1
  29   17   18 2
  30   17   25 1
  31   18   19 1
  32   19   20 ar
  33   19   21 ar
  34   20   24 ar
  35   20   45 1
  36   21   22 ar
  37   21   46 1
  38   22   23 ar
  39   22   47 1
  40   23   24 ar
  41   23   26 1
  42   24   48 1
  43   25   27 ar
  44   25   35 ar
  45   26   29 1
  46   26   28 1
  47   26   31 1
  48   27   32 ar
  49   27   36 1
  50   28   49 1
  51   28   50 1
  52   29   30 1
  53   29   51 1
  54   29   52 1
  55   30   31 1
  56   30   53 1
  57   30   54 1
  58   31   55 1
  59   31   56 1
  60   32   33 ar
  61   32   57 1
  62   33   34 ar
  63   33   58 1
  64   34   35 ar
  65   34   59 1
  66   35   60 1

#	End of record

