#	Name: ASD06710004
#	Creating user name:	WinNT
#	Creation time:	15. 06. 2019 21:08

#	Modifying user name:	WinNT
#	Modification time:	15. 06. 2019 21:08

#	Program:	/corina/corina34_cracker 3.40 0067  02.08.2006

@<TRIPOS>MOLECULE
ASD06710004
  19   20    0    0    0
SMALL
NO_CHARGES


@<TRIPOS>ATOM
   1 C1            -0.0170     1.4025     0.0098 C.ar    
   2 C2             0.0021    -0.0041     0.0020 C.ar    
   3 C3             1.3852     1.8263    -0.0014 C.2     
   4 C4            -1.2364     2.0826     0.0200 C.ar    
   5 C5            -1.2014    -0.7021     0.0098 C.ar    
   6 C6             2.1322     0.7111    -0.0145 C.2     
   7 C7            -2.4065     1.3772     0.0225 C.ar    
   8 C8            -2.3929    -0.0111     0.0248 C.ar    
   9 C9             3.6388     0.6790    -0.0280 C.3     
  10 N10            1.3230    -0.3923    -0.0127 N.pl3   
  11 H11            1.7489     2.8432     0.0001 H       
  12 H12           -1.2546     3.1624     0.0263 H       
  13 H13           -1.2014    -1.7820     0.0036 H       
  14 H14           -3.3494     1.9037     0.0307 H       
  15 H15           -3.3261    -0.5548     0.0308 H       
  16 H16            4.0111     0.6653     0.9963 H       
  17 H17            3.9785    -0.2155    -0.5501 H       
  18 H18            4.0164     1.5640    -0.5401 H       
  19 H19            1.6337    -1.3112    -0.0206 H       
@<TRIPOS>BOND
   1    1    2 ar
   2    1    3 1
   3    1    4 ar
   4    2    5 ar
   5    2   10 1
   6    3    6 2
   7    3   11 1
   8    4    7 ar
   9    4   12 1
  10    5    8 ar
  11    5   13 1
  12    6    9 1
  13    6   10 1
  14    7    8 ar
  15    7   14 1
  16    8   15 1
  17    9   16 1
  18    9   17 1
  19    9   18 1
  20   10   19 1

#	End of record

