#	Name: ASD01148410
#	Creating user name:	WinNT
#	Creation time:	15. 06. 2019 19:02

#	Modifying user name:	WinNT
#	Modification time:	15. 06. 2019 19:02

#	Program:	/corina/corina34_cracker 3.40 0067  02.08.2006

@<TRIPOS>MOLECULE
ASD01148410
  48   51    0    0    0
SMALL
NO_CHARGES


@<TRIPOS>ATOM
   1 C1             0.3638     1.8427     0.0681 C.ar    
   2 C2             0.4623     0.4639    -0.0072 C.ar    
   3 C3            -0.6841    -0.3071    -0.0948 C.ar    
   4 C4            -1.9267     0.3008    -0.1070 C.ar    
   5 C5            -2.0238     1.6776    -0.0322 C.ar    
   6 C6            -0.8800     2.4482     0.0615 C.ar    
   7 C7            -3.3780     2.3388    -0.0466 C.3     
   8 O8            -4.3709     1.4951     0.5714 O.3     
   9 C9            -3.3986     3.5791     0.8784 C.3     
  10 C10           -3.9262     3.0096     2.1816 C.2     
  11 N11           -4.4466     1.8539     1.9369 N.2     
  12 C12           -3.8557     3.6642     3.5028 C.ar    
  13 C13           -4.3835     3.0254     4.6281 C.ar    
  14 C14           -3.2563     4.9198     3.6292 C.ar    
  15 C15           -3.1907     5.5302     4.8614 C.ar    
  16 C16           -3.7230     4.8939     5.9854 C.ar    
  17 C17           -4.3178     3.6357     5.8598 C.ar    
  18 C18           -3.6521     5.5489     7.3078 C.2     
  19 O19           -4.2115     5.0491     8.2643 O.2     
  20 N20           -2.9673     6.7005     7.4536 N.am    
  21 C21           -4.8921     2.9494     7.0724 C.3     
  22 C22           -3.7872     2.7116    -1.4729 C.3     
  23 F23           -3.8265     1.5579    -2.2634 F       
  24 F24           -5.0527     3.3075    -1.4544 F       
  25 F25           -2.8564     3.6101    -2.0054 F       
  26 Cl26          -0.5625    -2.0363    -0.1899 Cl      
  27 Cl27           2.0223    -0.2976     0.0076 Cl      
  28 Cl28           1.8003     2.8112     0.1780 Cl      
  29 C29           -2.9007     7.3159     8.6963 C.ar    
  30 N30           -2.2235     8.4470     8.8218 N.ar    
  31 N31           -3.5204     6.7606     9.7265 N.ar    
  32 C32           -3.4770     7.3208    10.9239 C.ar    
  33 C33           -2.7723     8.5025    11.0922 C.ar    
  34 C34           -2.1401     9.0591     9.9913 C.ar    
  35 H35           -2.8212    -0.3005    -0.1753 H       
  36 H36           -0.9571     3.5238     0.1203 H       
  37 H37           -2.3937     3.9803     1.0101 H       
  38 H38           -4.0728     4.3416     0.4883 H       
  39 H39           -4.8432     2.0530     4.5311 H       
  40 H40           -2.8441     5.4113     2.7604 H       
  41 H41           -2.7273     6.5008     4.9592 H       
  42 H42           -2.5209     7.0993     6.6904 H       
  43 H43           -5.8991     3.3227     7.2583 H       
  44 H44           -4.9297     1.8742     6.8976 H       
  45 H45           -4.2628     3.1549     7.9383 H       
  46 H46           -3.9847     6.8632    11.7602 H       
  47 H47           -2.7207     8.9814    12.0589 H       
  48 H48           -1.5825     9.9789    10.0883 H       
@<TRIPOS>BOND
   1    1    2 ar
   2    1   28 1
   3    1    6 ar
   4    2    3 ar
   5    2   27 1
   6    3    4 ar
   7    3   26 1
   8    4    5 ar
   9    4   35 1
  10    5    6 ar
  11    5    7 1
  12    6   36 1
  13    7    8 1
  14    7    9 1
  15    7   22 1
  16    8   11 1
  17    9   10 1
  18    9   37 1
  19    9   38 1
  20   10   11 2
  21   10   12 1
  22   12   13 ar
  23   12   14 ar
  24   13   17 ar
  25   13   39 1
  26   14   15 ar
  27   14   40 1
  28   15   16 ar
  29   15   41 1
  30   16   17 ar
  31   16   18 1
  32   17   21 1
  33   18   19 2
  34   18   20 am
  35   20   29 1
  36   20   42 1
  37   21   43 1
  38   21   44 1
  39   21   45 1
  40   22   23 1
  41   22   24 1
  42   22   25 1
  43   29   30 ar
  44   29   31 ar
  45   30   34 ar
  46   31   32 ar
  47   32   33 ar
  48   32   46 1
  49   33   34 ar
  50   33   47 1
  51   34   48 1

#	End of record

