#	Name: ASD02038577
#	Creating user name:	WinNT
#	Creation time:	15. 06. 2019 20:17

#	Modifying user name:	WinNT
#	Modification time:	15. 06. 2019 20:17

#	Program:	/corina/corina34_cracker 3.40 0067  02.08.2006

@<TRIPOS>MOLECULE
ASD02038577
  59   62    0    0    0
SMALL
NO_CHARGES


@<TRIPOS>ATOM
   1 C1            -0.4797     1.3214     0.1792 C.3     
   2 N2            -0.2433    -0.1283     0.2269 N.3     
   3 C3             0.1490    -0.6414    -1.0925 C.3     
   4 C4             0.7652    -0.4614     1.2426 C.3     
   5 C5             0.2831     0.0196     2.6133 C.3     
   6 N6             0.0467     1.4692     2.5656 N.3     
   7 C7            -0.3264     1.9573     3.8207 C.ar    
   8 C8            -0.5961     3.3094     3.9893 C.ar    
   9 C9            -0.9646     3.7891     5.2309 C.ar    
  10 C10           -1.0652     2.9241     6.3063 C.ar    
  11 C11           -0.7967     1.5766     6.1413 C.ar    
  12 C12           -0.4338     1.0904     4.9006 C.ar    
  13 C13           -0.9618     1.8023     1.5499 C.3     
  14 C14           -1.0397    -0.5453    -2.0510 C.3     
  15 C15           -0.6248    -1.0595    -3.4310 C.3     
  16 O16           -1.6970    -0.8622    -4.3549 O.3     
  17 C17           -1.4904    -1.2680    -5.6360 C.ar    
  18 C18           -0.2743    -1.8456    -5.9923 C.ar    
  19 C19           -0.0473    -2.2626    -7.2855 C.ar    
  20 C20           -1.0378    -2.1081    -8.2493 C.ar    
  21 C21           -2.2686    -1.5247    -7.8935 C.ar    
  22 C22           -2.4892    -1.1105    -6.5760 C.ar    
  23 N23           -0.8296    -2.5190    -9.5503 N.am    
  24 O24           -2.1192    -1.3376    -1.5522 O.3     
  25 Cl25          -1.5287     3.5305     7.8656 Cl      
  26 C26           -1.7854    -2.3699   -10.4840 C.2     
  27 O27           -1.5665    -2.7443   -11.6232 O.2     
  28 C28           -3.0357    -1.7913   -10.1784 C.2     
  29 C29           -3.3025    -1.3677    -8.9183 C.2     
  30 C30            0.9733    -1.9768     1.2776 C.3     
  31 C31            0.8216     2.0390    -0.1849 C.3     
  32 H32           -1.2387     1.5415    -0.5714 H       
  33 H33            0.9777    -0.0495    -1.4809 H       
  34 H34            0.4580    -1.6826    -1.0002 H       
  35 H35            1.7064     0.0297     0.9953 H       
  36 H36           -0.6439    -0.4917     2.8727 H       
  37 H37            1.0424    -0.2006     3.3637 H       
  38 H38           -0.5174     3.9850     3.1504 H       
  39 H39           -1.1741     4.8403     5.3627 H       
  40 H40           -0.8753     0.9039     6.9825 H       
  41 H41           -0.2246     0.0387     4.7722 H       
  42 H42           -1.1100     2.8819     1.5250 H       
  43 H43           -1.9030     1.3113     1.7972 H       
  44 H44           -1.3586     0.4939    -2.1313 H       
  45 H45            0.2545    -0.5136    -3.7729 H       
  46 H46           -0.3908    -2.1222    -3.3675 H       
  47 H47            0.4984    -1.9676    -5.2477 H       
  48 H48            0.8997    -2.7090    -7.5508 H       
  49 H49           -3.4318    -0.6627    -6.2977 H       
  50 H50            0.0187    -2.9209    -9.7947 H       
  51 H51           -1.8865    -2.2622    -1.3905 H       
  52 H52           -3.7828    -1.6852   -10.9511 H       
  53 H53           -4.2569    -0.9241    -8.6757 H       
  54 H54            1.4289    -2.3026     0.3425 H       
  55 H55            1.6282    -2.2345     2.1099 H       
  56 H56            0.0112    -2.4728     1.4052 H       
  57 H57            1.1657     1.6949    -1.1602 H       
  58 H58            0.6459     3.1142    -0.2202 H       
  59 H59            1.5802     1.8193     0.5664 H       
@<TRIPOS>BOND
   1    1    2 1
   2    1   31 1
   3    1   13 1
   4    1   32 1
   5    2    3 1
   6    2    4 1
   7    3   14 1
   8    3   33 1
   9    3   34 1
  10    4    5 1
  11    4   30 1
  12    4   35 1
  13    5    6 1
  14    5   36 1
  15    5   37 1
  16    6    7 1
  17    6   13 1
  18    7    8 ar
  19    7   12 ar
  20    8    9 ar
  21    8   38 1
  22    9   10 ar
  23    9   39 1
  24   10   11 ar
  25   10   25 1
  26   11   12 ar
  27   11   40 1
  28   12   41 1
  29   13   42 1
  30   13   43 1
  31   14   15 1
  32   14   24 1
  33   14   44 1
  34   15   16 1
  35   15   45 1
  36   15   46 1
  37   16   17 1
  38   17   18 ar
  39   17   22 ar
  40   18   19 ar
  41   18   47 1
  42   19   20 ar
  43   19   48 1
  44   20   21 ar
  45   20   23 1
  46   21   22 ar
  47   21   29 1
  48   22   49 1
  49   23   26 am
  50   23   50 1
  51   24   51 1
  52   26   27 2
  53   26   28 1
  54   28   29 2
  55   28   52 1
  56   29   53 1
  57   30   54 1
  58   30   55 1
  59   30   56 1
  60   31   57 1
  61   31   58 1
  62   31   59 1

#	End of record

