#	Name: ASD01820137
#	Creating user name:	WinNT
#	Creation time:	15. 06. 2019 19:36

#	Modifying user name:	WinNT
#	Modification time:	15. 06. 2019 19:36

#	Program:	/corina/corina34_cracker 3.40 0067  02.08.2006

@<TRIPOS>MOLECULE
ASD01820137
  92  102    0    0    0
SMALL
NO_CHARGES


@<TRIPOS>ATOM
   1 N1            -0.4805    -0.9678    -0.9116 N.pl3   
   2 C2            -0.1092    -2.2328    -0.5011 C.2     
   3 C3             0.7688    -3.0289    -1.0661 C.2     
   4 C4             1.5732    -2.7052    -2.2773 C.3     
   5 N5             0.8362    -1.7867    -3.1735 N.pl3   
   6 C6             1.0727    -0.4277    -3.2664 C.2     
   7 C7             0.9041     0.4739    -2.3249 C.2     
   8 C8             0.4366     0.2013    -0.9411 C.3     
   9 C9             1.7504    -3.9154    -3.2073 C.3     
  10 C10            0.5769    -3.8507    -4.1160 C.ar    
  11 C11            0.0294    -2.5615    -3.9976 C.ar    
  12 C12            0.0249    -4.7966    -4.9577 C.ar    
  13 C13           -1.1107    -4.4304    -5.6701 C.ar    
  14 C14           -1.6672    -3.1746    -5.5463 C.ar    
  15 C15           -1.1258    -2.2198    -4.6986 C.ar    
  16 C16            1.2685     1.8959    -2.7370 C.3     
  17 C17            0.0947     2.8019    -2.3530 C.3     
  18 C18           -0.1448     2.7005    -0.8722 C.3     
  19 C19           -0.4962     1.3015    -0.4046 C.3     
  20 C20           -1.8531     0.8560    -0.8182 C.ar    
  21 C21           -1.7622    -0.5005    -1.1705 C.ar    
  22 C22           -3.0475     1.5433    -0.8995 C.ar    
  23 C23           -4.1579     0.8445    -1.3573 C.ar    
  24 C24           -4.0740    -0.4834    -1.7206 C.ar    
  25 C25           -2.8798    -1.1772    -1.6487 C.ar    
  26 C26           -0.3258     1.3922     1.1224 C.3     
  27 C27            2.4296     2.3405    -1.8578 C.2     
  28 N28            0.9871     3.0896    -0.0193 N.4     
  29 C29            0.5992     2.6107     1.3433 C.3     
  30 H30            1.2855     0.0412    -0.2765 H       
  31 H31            1.5028     1.9626    -3.7994 H       
  32 O32            4.4255     4.0315    -4.1880 O.3     
  33 C33            3.5738     2.7104    -2.3775 C.2     
  34 C34            3.7185     2.8303    -3.8727 C.3     
  35 H35            2.5343    -2.2760    -1.9939 H       
  36 O36            2.0380    -3.7622     3.5450 O.3     
  37 C37            1.8960    -5.2426    -2.4856 C.3     
  38 C38            0.9724    -4.3649    -0.3642 C.3     
  39 C39            0.8568    -5.4671    -1.4219 C.3     
  40 C40            2.4155    -4.4143     0.1174 C.2     
  41 N41            3.2908    -5.2470    -2.0214 N.4     
  42 C42            3.0933    -3.7795    -3.9476 C.3     
  43 C43            4.0646    -4.7065    -3.1814 C.3     
  44 H44            0.2600    -4.5071     0.4484 H       
  45 C45            2.7046    -4.5647     1.3862 C.2     
  46 C46            1.6073    -4.5287     2.4185 C.3     
  47 C47            2.2109     2.3382    -0.3620 C.3     
  48 C48            3.5020    -4.2835    -0.9254 C.3     
  49 C49            1.2170     4.5399    -0.0594 C.3     
  50 C50            3.7252    -6.5976    -1.6403 C.3     
  51 H51           -0.5963    -2.6103     0.3859 H       
  52 H52            1.4355    -0.0670    -4.2175 H       
  53 H53            0.4584    -5.7806    -5.0582 H       
  54 H54           -1.5681    -5.1462    -6.3370 H       
  55 H55           -2.5462    -2.9288    -6.1236 H       
  56 H56           -1.5824    -1.2476    -4.5858 H       
  57 H57            0.3305     3.8336    -2.6139 H       
  58 H58           -0.8001     2.4853    -2.8891 H       
  59 H59           -0.9775     3.3566    -0.6187 H       
  60 H60           -3.1163     2.5837    -0.6180 H       
  61 H61           -5.1081     1.3526    -1.4300 H       
  62 H62           -4.9605    -0.9915    -2.0705 H       
  63 H63           -2.8161    -2.2119    -1.9518 H       
  64 H64           -1.2904     1.5558     1.6030 H       
  65 H65            0.1419     0.4858     1.5068 H       
  66 H66            0.0646     3.3952     1.8788 H       
  67 H67            1.4861     2.3118     1.9020 H       
  68 H68            4.5555     4.1741    -5.1356 H       
  69 H69            4.4134     2.9293    -1.7344 H       
  70 H70            2.7306     2.8589    -4.3323 H       
  71 H71            4.2720     1.9722    -4.2542 H       
  72 H72            1.3802    -3.6964     4.2507 H       
  73 H73            1.7852    -6.0379    -3.2227 H       
  74 H74           -0.1360    -5.4382    -1.8709 H       
  75 H75            1.0180    -6.4385    -0.9546 H       
  76 H76            2.9912    -4.1087    -4.9816 H       
  77 H77            3.4443    -2.7482    -3.9099 H       
  78 H78            4.9246    -4.1383    -2.8268 H       
  79 H79            4.3927    -5.5217    -3.8263 H       
  80 H80            3.7294    -4.7145     1.6925 H       
  81 H81            1.3752    -5.5447     2.7376 H       
  82 H82            0.7172    -4.0711     1.9867 H       
  83 H83            2.1121     1.3100    -0.0137 H       
  84 H84            3.0673     2.8011     0.1283 H       
  85 H85            3.4914    -3.2714    -1.3300 H       
  86 H86            4.4698    -4.4739    -0.4614 H       
  87 H87            0.3254     5.0590     0.2923 H       
  88 H88            2.0611     4.7919     0.5825 H       
  89 H89            1.4351     4.8451    -1.0829 H       
  90 H90            3.6454    -7.2614    -2.5012 H       
  91 H91            4.7609    -6.5643    -1.3020 H       
  92 H92            3.0917    -6.9693    -0.8350 H       
@<TRIPOS>BOND
   1    1    2 1
   2    1    8 1
   3    1   21 1
   4    2    3 2
   5    2   51 1
   6    3    4 1
   7    3   38 1
   8    4    5 1
   9    4    9 1
  10    4   35 1
  11    5    6 1
  12    5   11 1
  13    6    7 2
  14    6   52 1
  15    7    8 1
  16    7   16 1
  17    8   19 1
  18    8   30 1
  19    9   10 1
  20    9   42 1
  21    9   37 1
  22   10   11 ar
  23   10   12 ar
  24   11   15 ar
  25   12   13 ar
  26   12   53 1
  27   13   14 ar
  28   13   54 1
  29   14   15 ar
  30   14   55 1
  31   15   56 1
  32   16   17 1
  33   16   27 1
  34   16   31 1
  35   17   18 1
  36   17   57 1
  37   17   58 1
  38   18   19 1
  39   18   28 1
  40   18   59 1
  41   19   20 1
  42   19   26 1
  43   20   21 ar
  44   20   22 ar
  45   21   25 ar
  46   22   23 ar
  47   22   60 1
  48   23   24 ar
  49   23   61 1
  50   24   25 ar
  51   24   62 1
  52   25   63 1
  53   26   29 1
  54   26   64 1
  55   26   65 1
  56   27   33 2
  57   27   47 1
  58   28   47 1
  59   28   49 1
  60   28   29 1
  61   29   66 1
  62   29   67 1
  63   32   34 1
  64   32   68 1
  65   33   34 1
  66   33   69 1
  67   34   70 1
  68   34   71 1
  69   36   46 1
  70   36   72 1
  71   37   41 1
  72   37   39 1
  73   37   73 1
  74   38   39 1
  75   38   40 1
  76   38   44 1
  77   39   74 1
  78   39   75 1
  79   40   45 2
  80   40   48 1
  81   41   48 1
  82   41   50 1
  83   41   43 1
  84   42   43 1
  85   42   76 1
  86   42   77 1
  87   43   78 1
  88   43   79 1
  89   45   46 1
  90   45   80 1
  91   46   81 1
  92   46   82 1
  93   47   83 1
  94   47   84 1
  95   48   85 1
  96   48   86 1
  97   49   87 1
  98   49   88 1
  99   49   89 1
 100   50   90 1
 101   50   91 1
 102   50   92 1

#	End of record

