#	Name: ASD04882300
#	Creating user name:	WinNT
#	Creation time:	15. 06. 2019 20:54

#	Modifying user name:	WinNT
#	Modification time:	15. 06. 2019 20:54

#	Program:	/corina/corina34_cracker 3.40 0067  02.08.2006

@<TRIPOS>MOLECULE
ASD04882300
  81   86    0    0    0
SMALL
NO_CHARGES


@<TRIPOS>ATOM
   1 N1            -0.0169     1.3970     0.0097 N.am    
   2 C2             0.1091     0.0021    -0.0337 C.ar    
   3 C3            -1.0285    -0.8057     0.0463 C.ar    
   4 C4            -0.9050    -2.1898     0.0034 C.ar    
   5 C5             0.3382    -2.7698    -0.1177 C.ar    
   6 C6             1.4801    -1.9677    -0.1978 C.ar    
   7 C7             1.3580    -0.5758    -0.1615 C.ar    
   8 N8            -2.2875    -0.2235     0.1697 N.3     
   9 C9            -3.1537    -0.5984    -0.9567 C.3     
  10 C10           -2.9103    -0.5823     1.4515 C.3     
  11 C11           -4.2537     0.1391     1.5825 C.3     
  12 N12           -5.1200    -0.2357     0.4561 N.3     
  13 C13           -4.4971     0.1231    -0.8257 C.3     
  14 C14            2.8118    -2.5893    -0.3264 C.2     
  15 O15            3.8047    -1.8907    -0.3960 O.2     
  16 C16            0.9214     2.1766    -0.5632 C.2     
  17 C17            0.7449     3.6396    -0.5952 C.2     
  18 O18            1.9138     1.6728    -1.0539 O.2     
  19 N19           -0.3074     4.3382    -0.0892 N.2     
  20 C20            1.6067     4.5465    -1.1312 C.2     
  21 O21            1.0631     5.7601    -0.9457 O.3     
  22 C22           -0.1051     5.6031    -0.3071 C.2     
  23 N23            2.9280    -3.9314    -0.3668 N.am    
  24 C24           -6.3827     0.3482     0.5799 C.ar    
  25 C25           -7.5150    -0.4522     0.6596 C.ar    
  26 C26           -6.5085     1.7310     0.6292 C.ar    
  27 C27           -7.7584     2.3050     0.7516 C.ar    
  28 C28           -8.8843     1.5051     0.8254 C.ar    
  29 C29           -8.7622     0.1285     0.7819 C.ar    
  30 C30           -1.0367     6.7175     0.0942 C.3     
  31 C31           -0.4935     7.7834     1.0480 C.3     
  32 C32           -0.7238     8.1218    -0.4263 C.3     
  33 C33           -7.3829    -1.9527     0.6123 C.3     
  34 C34            4.2505    -4.5487    -0.4946 C.3     
  35 C35            4.1049    -6.0485    -0.5160 C.ar    
  36 C36            3.9356    -6.7079    -1.7184 C.ar    
  37 C37            4.1465    -6.7625     0.6662 C.ar    
  38 C38            4.0131    -8.1437     0.6491 C.ar    
  39 C39            3.8379    -8.8071    -0.5556 C.ar    
  40 C40            3.8017    -8.0890    -1.7409 C.ar    
  41 O41            4.0547    -8.8454     1.8121 O.3     
  42 O42            3.6301    -8.7365    -2.9233 O.3     
  43 C43            3.4935   -10.1580    -2.8707 C.3     
  44 C44            3.9106   -10.2641     1.7193 C.3     
  45 H45           -0.7815     1.8014     0.4487 H       
  46 H46           -1.7859    -2.8115     0.0654 H       
  47 H47            0.4310    -3.8453    -0.1504 H       
  48 H48            2.2386     0.0465    -0.2231 H       
  49 H49           -2.6766    -0.3112    -1.8937 H       
  50 H50           -3.3172    -1.6760    -0.9468 H       
  51 H51           -3.0710    -1.6598     1.4887 H       
  52 H52           -2.2556    -0.2835     2.2702 H       
  53 H53           -4.7308    -0.1481     2.5195 H       
  54 H54           -4.0902     1.2167     1.5726 H       
  55 H55           -4.3365     1.2005    -0.8629 H       
  56 H56           -5.1518    -0.1758    -1.6443 H       
  57 H57            2.5488     4.3310    -1.6134 H       
  58 H58            2.1360    -4.4887    -0.3113 H       
  59 H59           -5.6297     2.3561     0.5723 H       
  60 H60           -7.8569     3.3798     0.7900 H       
  61 H61           -9.8606     1.9566     0.9218 H       
  62 H62           -9.6434    -0.4932     0.8398 H       
  63 H63           -2.0859     6.4399     0.1947 H       
  64 H64           -1.1854     8.2073     1.7757 H       
  65 H65            0.5377     7.6786     1.3852 H       
  66 H66            0.1560     8.2396    -1.0590 H       
  67 H67           -1.5672     8.7684    -0.6684 H       
  68 H68           -7.2617    -2.3389     1.6243 H       
  69 H69           -8.2789    -2.3824     0.1643 H       
  70 H70           -6.5125    -2.2221     0.0139 H       
  71 H71            4.7188    -4.2159    -1.4209 H       
  72 H72            4.8714    -4.2560     0.3521 H       
  73 H73            3.9071    -6.1480    -2.6415 H       
  74 H74            4.2834    -6.2452     1.6044 H       
  75 H75            3.7339    -9.8820    -0.5710 H       
  76 H76            3.3631   -10.5480    -3.8801 H       
  77 H77            4.3887   -10.5927    -2.4260 H       
  78 H78            2.6246   -10.4174    -2.2659 H       
  79 H79            2.9478   -10.5028     1.2675 H       
  80 H80            4.7122   -10.6711     1.1029 H       
  81 H81            3.9620   -10.7005     2.7168 H       
@<TRIPOS>BOND
   1    1    2 1
   2    1   16 am
   3    1   45 1
   4    2    3 ar
   5    2    7 ar
   6    3    4 ar
   7    3    8 1
   8    4    5 ar
   9    4   46 1
  10    5    6 ar
  11    5   47 1
  12    6    7 ar
  13    6   14 1
  14    7   48 1
  15    8    9 1
  16    8   10 1
  17    9   13 1
  18    9   49 1
  19    9   50 1
  20   10   11 1
  21   10   51 1
  22   10   52 1
  23   11   12 1
  24   11   53 1
  25   11   54 1
  26   12   13 1
  27   12   24 1
  28   13   55 1
  29   13   56 1
  30   14   15 2
  31   14   23 am
  32   16   18 2
  33   16   17 1
  34   17   19 1
  35   17   20 2
  36   19   22 2
  37   20   21 1
  38   20   57 1
  39   21   22 1
  40   22   30 1
  41   23   34 1
  42   23   58 1
  43   24   25 ar
  44   24   26 ar
  45   25   33 1
  46   25   29 ar
  47   26   27 ar
  48   26   59 1
  49   27   28 ar
  50   27   60 1
  51   28   29 ar
  52   28   61 1
  53   29   62 1
  54   30   31 1
  55   30   32 1
  56   30   63 1
  57   31   32 1
  58   31   64 1
  59   31   65 1
  60   32   66 1
  61   32   67 1
  62   33   68 1
  63   33   69 1
  64   33   70 1
  65   34   35 1
  66   34   71 1
  67   34   72 1
  68   35   36 ar
  69   35   37 ar
  70   36   40 ar
  71   36   73 1
  72   37   38 ar
  73   37   74 1
  74   38   39 ar
  75   38   41 1
  76   39   40 ar
  77   39   75 1
  78   40   42 1
  79   41   44 1
  80   42   43 1
  81   43   76 1
  82   43   77 1
  83   43   78 1
  84   44   79 1
  85   44   80 1
  86   44   81 1

#	End of record

