#	Name: ASD01140418
#	Creating user name:	WinNT
#	Creation time:	15. 06. 2019 19:00

#	Modifying user name:	WinNT
#	Modification time:	15. 06. 2019 19:00

#	Program:	/corina/corina34_cracker 3.40 0067  02.08.2006

@<TRIPOS>MOLECULE
ASD01140418
  38   39    0    0    0
SMALL
NO_CHARGES


@<TRIPOS>ATOM
   1 C1            -0.0168     1.3843     0.0097 C.ar    
   2 C2             0.0021    -0.0041     0.0020 C.ar    
   3 N3            -1.1188    -0.6984     0.0094 N.ar    
   4 C4            -2.2996    -0.1149     0.0243 C.ar    
   5 C5            -2.4064     1.2761     0.0324 C.ar    
   6 C6            -1.2378     2.0449     0.0307 C.ar    
   7 O7             1.1460     2.0880     0.0023 O.3     
   8 C8             2.3602     1.3347    -0.0133 C.3     
   9 C9             3.5541     2.2916    -0.0196 C.3     
  10 C10            4.9145     1.5849    -0.1592 C.3     
  11 C11            5.4229     2.5661     0.9125 C.3     
  12 N12            4.0091     2.6859     1.3320 N.3     
  13 C13           -3.6920     1.9068     0.0476 C.1     
  14 C14           -4.7459     2.4239     0.0601 C.1     
  15 C15           -6.0673     3.0722     0.0758 C.3     
  16 C16           -5.8898     4.5919     0.0819 C.3     
  17 C17           -7.2633     5.2658     0.0981 C.3     
  18 C18           -7.0858     6.7854     0.1042 C.3     
  19 F19           -8.3417     7.4016     0.1191 F       
  20 H20            0.9491    -0.5231    -0.0106 H       
  21 H21           -3.1944    -0.7196     0.0300 H       
  22 H22           -1.2842     3.1239     0.0371 H       
  23 H23            2.4065     0.7017     0.8729 H       
  24 H24            2.3895     0.7113    -0.9070 H       
  25 H25            3.4228     3.1306    -0.7029 H       
  26 H26            4.9043     0.5451     0.1675 H       
  27 H27            5.3812     1.7205    -1.1348 H       
  28 H28            6.0656     2.1037     1.6617 H       
  29 H29            5.8390     3.4866     0.5032 H       
  30 H30            3.7702     3.6464     1.5280 H       
  31 H31           -6.6282     2.7755    -0.8105 H       
  32 H32           -6.6115     2.7664     0.9694 H       
  33 H33           -5.3290     4.8887     0.9681 H       
  34 H34           -5.3456     4.8977    -0.8117 H       
  35 H35           -7.8241     4.9690    -0.7881 H       
  36 H36           -7.8075     4.9600     0.9917 H       
  37 H37           -6.5249     7.0822     0.9905 H       
  38 H38           -6.5416     7.0912    -0.7894 H       
@<TRIPOS>BOND
   1    1    2 ar
   2    1    7 1
   3    1    6 ar
   4    2    3 ar
   5    2   20 1
   6    3    4 ar
   7    4    5 ar
   8    4   21 1
   9    5    6 ar
  10    5   13 1
  11    6   22 1
  12    7    8 1
  13    8    9 1
  14    8   23 1
  15    8   24 1
  16    9   10 1
  17    9   12 1
  18    9   25 1
  19   10   11 1
  20   10   26 1
  21   10   27 1
  22   11   12 1
  23   11   28 1
  24   11   29 1
  25   12   30 1
  26   13   14 3
  27   14   15 1
  28   15   16 1
  29   15   31 1
  30   15   32 1
  31   16   17 1
  32   16   33 1
  33   16   34 1
  34   17   18 1
  35   17   35 1
  36   17   36 1
  37   18   19 1
  38   18   37 1
  39   18   38 1

#	End of record

