#	Name: ASD01813999
#	Creating user name:	WinNT
#	Creation time:	15. 06. 2019 19:31

#	Modifying user name:	WinNT
#	Modification time:	15. 06. 2019 19:31

#	Program:	/corina/corina34_cracker 3.40 0067  02.08.2006

@<TRIPOS>MOLECULE
ASD01813999
  47   50    0    0    0
SMALL
NO_CHARGES


@<TRIPOS>ATOM
   1 C1            -0.3443     1.0267     0.1339 C.ar    
   2 C2            -0.1915    -0.3510     0.1236 C.ar    
   3 C3             1.0624    -0.9211     0.0689 C.ar    
   4 C4             2.1941    -0.1124     0.0226 C.ar    
   5 C5             2.0397     1.2848     0.0326 C.ar    
   6 C6             0.7634     1.8500     0.0888 C.ar    
   7 N7             3.4526    -0.6720    -0.0318 N.pl3   
   8 C8             4.5718     0.0622    -0.0767 C.2     
   9 C9             4.5468     1.4420    -0.0723 C.2     
  10 C10            3.2461     2.1295    -0.0168 C.2     
  11 F11            0.6139     3.1927     0.0983 F       
  12 O12            3.1703     3.3458    -0.0110 O.2     
  13 C13            5.7974     2.2122    -0.1218 C.2     
  14 O14            5.7598     3.5597    -0.1170 O.3     
  15 O15            6.8659     1.6341    -0.1671 O.2     
  16 C16            3.5710    -2.1322    -0.0403 C.3     
  17 C17            3.5518    -2.6295    -1.4628 C.ar    
  18 C18            4.7363    -2.7601    -2.1641 C.ar    
  19 C19            4.7217    -3.2156    -3.4680 C.ar    
  20 C20            3.5165    -3.5428    -4.0741 C.ar    
  21 C21            2.3290    -3.4111    -3.3673 C.ar    
  22 C22            2.3502    -2.9596    -2.0621 C.ar    
  23 N23            3.4985    -4.0051    -5.3979 N.pl3   
  24 C24            2.8005    -3.4672    -6.4317 C.2     
  25 N25            3.0373    -4.1721    -7.5043 N.2     
  26 C26            3.8810    -5.1702    -7.2030 C.2     
  27 C27            4.1868    -5.0818    -5.8946 C.2     
  28 C28            1.9028    -2.2593    -6.3530 C.3     
  29 C29            2.7410    -0.9896    -6.5143 C.3     
  30 H30           -1.3337     1.4579     0.1728 H       
  31 H31           -1.0650    -0.9851     0.1592 H       
  32 H32            1.1667    -1.9961     0.0622 H       
  33 H33            5.5259    -0.4424    -0.1175 H       
  34 H34            6.6081     4.0227    -0.1507 H       
  35 H35            4.5083    -2.4235     0.4338 H       
  36 H36            2.7358    -2.5677     0.5082 H       
  37 H37            5.6737    -2.5053    -1.6921 H       
  38 H38            5.6471    -3.3167    -4.0156 H       
  39 H39            1.3898    -3.6646    -3.8364 H       
  40 H40            1.4267    -2.8569    -1.5117 H       
  41 H41            4.2538    -5.9139    -7.8917 H       
  42 H42            4.8425    -5.7376    -5.3411 H       
  43 H43            1.1590    -2.3071    -7.1483 H       
  44 H44            1.4002    -2.2425    -5.3860 H       
  45 H45            3.4262    -0.8971    -5.6716 H       
  46 H46            3.3111    -1.0459    -7.4416 H       
  47 H47            2.0829    -0.1212    -6.5445 H       
@<TRIPOS>BOND
   1    1    2 ar
   2    1    6 ar
   3    1   30 1
   4    2    3 ar
   5    2   31 1
   6    3    4 ar
   7    3   32 1
   8    4    5 ar
   9    4    7 1
  10    5    6 ar
  11    5   10 1
  12    6   11 1
  13    7    8 1
  14    7   16 1
  15    8    9 2
  16    8   33 1
  17    9   10 1
  18    9   13 1
  19   10   12 2
  20   13   14 1
  21   13   15 2
  22   14   34 1
  23   16   17 1
  24   16   35 1
  25   16   36 1
  26   17   18 ar
  27   17   22 ar
  28   18   19 ar
  29   18   37 1
  30   19   20 ar
  31   19   38 1
  32   20   21 ar
  33   20   23 1
  34   21   22 ar
  35   21   39 1
  36   22   40 1
  37   23   24 1
  38   23   27 1
  39   24   25 2
  40   24   28 1
  41   25   26 1
  42   26   27 2
  43   26   41 1
  44   27   42 1
  45   28   29 1
  46   28   43 1
  47   28   44 1
  48   29   45 1
  49   29   46 1
  50   29   47 1

#	End of record

