#	Name: ASD03331345
#	Creating user name:	WinNT
#	Creation time:	15. 06. 2019 20:39

#	Modifying user name:	WinNT
#	Modification time:	15. 06. 2019 20:39

#	Program:	/corina/corina34_cracker 3.40 0067  02.08.2006

@<TRIPOS>MOLECULE
ASD03331345
  71   74    0    0    0
SMALL
NO_CHARGES


@<TRIPOS>ATOM
   1 C1             0.1670     1.2674     0.8043 C.3     
   2 C2             0.1647    -0.2113     0.5088 C.2     
   3 C3             1.2351    -0.8754     0.0102 C.2     
   4 C4             2.5483    -0.2045    -0.3091 C.3     
   5 C5             2.3036     1.3103    -0.3557 C.3     
   6 N6             1.5654     1.7283     0.8440 N.3     
   7 N7            -0.4393    -2.3187     0.2962 N.2     
   8 N8             0.8910    -2.1778    -0.1290 N.am    
   9 C9            -0.8774    -1.1365     0.6797 C.2     
  10 C10            1.6847    -3.1634    -0.5930 C.2     
  11 O11            2.8248    -2.9162    -0.9325 O.2     
  12 N12            1.2136    -4.4231    -0.6805 N.am    
  13 C13           -2.2335    -0.8360     1.2007 C.ar    
  14 C14           -2.8039    -1.6513     2.1794 C.ar    
  15 C15           -4.0673    -1.3672     2.6622 C.ar    
  16 C16           -4.7673    -0.2759     2.1758 C.ar    
  17 C17           -4.2044     0.5370     1.2025 C.ar    
  18 C18           -2.9393     0.2642     0.7185 C.ar    
  19 F19           -4.8921     1.6001     0.7313 F       
  20 F20           -6.0024    -0.0022     2.6502 F       
  21 F21           -2.1221    -2.7168     2.6539 F       
  22 C22            1.6348     3.1845     1.0241 C.3     
  23 C23            1.2243    -6.5979    -1.7573 C.2     
  24 C24            2.0762    -5.4944    -1.1850 C.3     
  25 C25            2.9252    -6.0478    -0.0388 C.3     
  26 C26            3.7297    -7.2510    -0.5349 C.3     
  27 O27            0.1591    -6.8694    -1.2449 O.2     
  28 N28            1.6461    -7.2830    -2.8386 N.am    
  29 C29            0.9731    -8.4483    -3.4308 C.3     
  30 C30            1.8286    -8.9116    -4.6288 C.3     
  31 C31            3.2294    -8.3305    -4.3009 C.3     
  32 C32            2.8553    -6.9841    -3.6272 C.3     
  33 C33            0.8745    -9.5552    -2.4129 C.2     
  34 N34            0.2899   -10.7239    -2.7428 N.am    
  35 O35            1.3212    -9.3944    -1.2969 O.2     
  36 C36            0.1941   -11.8000    -1.7533 C.3     
  37 C37            3.8835    -4.9627     0.4561 C.3     
  38 C38            2.0115    -6.4833     1.1086 C.3     
  39 H39           -0.3732     1.7995     0.0213 H       
  40 H40           -0.3077     1.4502     1.7683 H       
  41 H41            3.2792    -0.4366     0.4656 H       
  42 H42            2.9131    -0.5493    -1.2767 H       
  43 H43            3.2602     1.8314    -0.3931 H       
  44 H44            1.7218     1.5567    -1.2439 H       
  45 H45            0.3033    -4.6204    -0.4095 H       
  46 H46           -4.5095    -1.9975     3.4195 H       
  47 H47           -2.5002     0.9002    -0.0358 H       
  48 H48            1.1498     3.4583     1.9612 H       
  49 H49            2.6784     3.4981     1.0500 H       
  50 H50            1.1276     3.6778     0.1949 H       
  51 H51            2.7294    -5.0990    -1.9629 H       
  52 H52            4.4400    -6.9249    -1.2946 H       
  53 H53            4.2700    -7.6962     0.3005 H       
  54 H54            3.0521    -7.9891    -0.9640 H       
  55 H55           -0.0227    -8.1669    -3.7731 H       
  56 H56            1.8646    -9.9998    -4.6790 H       
  57 H57            1.4462    -8.4939    -5.5601 H       
  58 H58            3.7699    -8.9792    -3.6116 H       
  59 H59            3.8057    -8.1633    -5.2108 H       
  60 H60            2.6391    -6.2272    -4.3811 H       
  61 H61            3.6615    -6.6505    -2.9738 H       
  62 H62           -0.0674   -10.8526    -3.6354 H       
  63 H63           -0.3784   -11.4528    -0.8932 H       
  64 H64           -0.3056   -12.6601    -2.1991 H       
  65 H65            1.1949   -12.0878    -1.4314 H       
  66 H66            3.3105    -4.1055     0.8096 H       
  67 H67            4.4884    -5.3570     1.2727 H       
  68 H68            4.5345    -4.6524    -0.3613 H       
  69 H69            1.3288    -7.2563     0.7560 H       
  70 H70            2.6164    -6.8776     1.9251 H       
  71 H71            1.4384    -5.6261     1.4620 H       
@<TRIPOS>BOND
   1    1    2 1
   2    1    6 1
   3    1   39 1
   4    1   40 1
   5    2    3 2
   6    2    9 1
   7    3    4 1
   8    3    8 1
   9    4    5 1
  10    4   41 1
  11    4   42 1
  12    5    6 1
  13    5   43 1
  14    5   44 1
  15    6   22 1
  16    7    8 1
  17    7    9 2
  18    8   10 am
  19    9   13 1
  20   10   11 2
  21   10   12 am
  22   12   24 1
  23   12   45 1
  24   13   14 ar
  25   13   18 ar
  26   14   15 ar
  27   14   21 1
  28   15   16 ar
  29   15   46 1
  30   16   17 ar
  31   16   20 1
  32   17   18 ar
  33   17   19 1
  34   18   47 1
  35   22   48 1
  36   22   49 1
  37   22   50 1
  38   23   27 2
  39   23   28 am
  40   23   24 1
  41   24   25 1
  42   24   51 1
  43   25   26 1
  44   25   37 1
  45   25   38 1
  46   26   52 1
  47   26   53 1
  48   26   54 1
  49   28   29 1
  50   28   32 1
  51   29   30 1
  52   29   33 1
  53   29   55 1
  54   30   31 1
  55   30   56 1
  56   30   57 1
  57   31   32 1
  58   31   58 1
  59   31   59 1
  60   32   60 1
  61   32   61 1
  62   33   34 am
  63   33   35 2
  64   34   36 1
  65   34   62 1
  66   36   63 1
  67   36   64 1
  68   36   65 1
  69   37   66 1
  70   37   67 1
  71   37   68 1
  72   38   69 1
  73   38   70 1
  74   38   71 1

#	End of record

