#	Name: ASD01916472
#	Creating user name:	WinNT
#	Creation time:	15. 06. 2019 20:07

#	Modifying user name:	WinNT
#	Modification time:	15. 06. 2019 20:07

#	Program:	/corina/corina34_cracker 3.40 0067  02.08.2006

@<TRIPOS>MOLECULE
ASD01916472
  39   43    0    0    0
SMALL
NO_CHARGES


@<TRIPOS>ATOM
   1 C1            -0.0171     1.4098     0.0098 C.ar    
   2 C2             0.0021    -0.0041     0.0020 C.ar    
   3 C3            -1.1921    -0.7254     0.0129 C.ar    
   4 C4            -2.3849    -0.0638     0.0289 C.ar    
   5 C5            -2.4221     1.3389     0.0344 C.ar    
   6 C6            -1.2406     2.0765     0.0308 C.ar    
   7 N7             1.1596     2.0858     0.0022 N.2     
   8 C8             2.3019     1.4709    -0.0155 C.2     
   9 N9             2.4101     0.1087    -0.0322 N.am    
  10 C10            1.3110    -0.6733    -0.0191 C.2     
  11 C11           -3.6834     2.0167     0.0499 C.1     
  12 C12           -4.7175     2.5724     0.0627 C.1     
  13 C13           -5.9789     3.2501     0.0782 C.ar    
  14 N14           -6.0139     4.5792     0.0834 N.ar    
  15 C15           -7.1535     5.2389     0.0976 C.ar    
  16 C16           -8.3633     4.5683     0.1082 C.ar    
  17 C17           -8.3739     3.1800     0.1034 C.ar    
  18 C18           -7.1640     2.5100     0.0821 C.ar    
  19 O19            1.3996    -1.8875    -0.0247 O.2     
  20 C20            3.7293     2.0396    -0.0203 C.3     
  21 C21            4.2518     1.7225    -1.4576 C.3     
  22 C22            4.3267     0.1768    -1.4899 C.3     
  23 C23            3.8541    -0.2536    -0.0658 C.3     
  24 C24            4.4556     0.9117     0.8006 C.3     
  25 H25           -1.1722    -1.8052     0.0083 H       
  26 H26           -3.3081    -0.6241     0.0371 H       
  27 H27           -1.2725     3.1560     0.0352 H       
  28 H28           -7.1434     6.3189     0.1014 H       
  29 H29           -9.2917     5.1200     0.1206 H       
  30 H30           -9.3064     2.6352     0.1114 H       
  31 H31           -7.1357     1.4304     0.0774 H       
  32 H32            3.8454     3.0676     0.3231 H       
  33 H33            3.5515     2.0877    -2.2088 H       
  34 H34            5.2397     2.1570    -1.6104 H       
  35 H35            3.6571    -0.2224    -2.2517 H       
  36 H36            5.3502    -0.1526    -1.6688 H       
  37 H37            4.1002    -1.2725     0.2335 H       
  38 H38            5.5410     0.9722     0.7201 H       
  39 H39            4.1234     0.8729     1.8380 H       
@<TRIPOS>BOND
   1    1    2 ar
   2    1    7 1
   3    1    6 ar
   4    2    3 ar
   5    2   10 1
   6    3    4 ar
   7    3   25 1
   8    4    5 ar
   9    4   26 1
  10    5    6 ar
  11    5   11 1
  12    6   27 1
  13    7    8 2
  14    8    9 1
  15    8   20 1
  16    9   10 am
  17    9   23 1
  18   10   19 2
  19   11   12 3
  20   12   13 1
  21   13   14 ar
  22   13   18 ar
  23   14   15 ar
  24   15   16 ar
  25   15   28 1
  26   16   17 ar
  27   16   29 1
  28   17   18 ar
  29   17   30 1
  30   18   31 1
  31   20   21 1
  32   20   24 1
  33   20   32 1
  34   21   22 1
  35   21   33 1
  36   21   34 1
  37   22   23 1
  38   22   35 1
  39   22   36 1
  40   23   24 1
  41   23   37 1
  42   24   38 1
  43   24   39 1

#	End of record

