#	Name: ASD01040007
#	Creating user name:	WinNT
#	Creation time:	15. 06. 2019 18:58

#	Modifying user name:	WinNT
#	Modification time:	15. 06. 2019 18:58

#	Program:	/corina/corina34_cracker 3.40 0067  02.08.2006

@<TRIPOS>MOLECULE
ASD01040007
  36   38    0    0    0
SMALL
NO_CHARGES


@<TRIPOS>ATOM
   1 C1            -0.0187     1.5258     0.0104 C.3     
   2 C2             0.0021    -0.0041     0.0020 C.3     
   3 N3            -1.3723    -0.5112     0.0124 N.pl3   
   4 N4            -2.1373    -0.7837    -1.1269 N.2     
   5 C5            -3.3269    -1.2265    -0.7592 C.ar    
   6 C6            -3.3425    -1.2452     0.7103 C.ar    
   7 C7            -2.0873    -0.7905     1.1221 C.2     
   8 C8            -1.6301    -0.6363     2.5155 C.ar    
   9 C9            -1.8271     0.5717     3.1885 C.ar    
  10 C10           -1.3982     0.7117     4.4909 C.ar    
  11 C11           -0.7698    -0.3453     5.1376 C.ar    
  12 C12           -0.5694    -1.5495     4.4775 C.ar    
  13 C13           -1.0007    -1.7039     3.1722 C.ar    
  14 O14           -0.8056    -2.8820     2.5250 O.3     
  15 O15           -0.3495    -0.1993     6.4213 O.3     
  16 C16           -4.5045    -1.6804     1.3719 C.ar    
  17 C17           -5.5832    -2.0725     0.6448 C.ar    
  18 C18           -5.5713    -2.0562    -0.7508 C.ar    
  19 C19           -4.4833    -1.6472    -1.4511 C.ar    
  20 C20           -4.5086    -1.6440    -2.9579 C.3     
  21 F21           -5.7530    -2.1014    -3.4044 F       
  22 F22           -4.2950    -0.3427    -3.4251 F       
  23 F23           -3.5012    -2.4849    -3.4430 F       
  24 H24            1.0039     1.9031     0.0027 H       
  25 H25           -0.5459     1.8868    -0.8726 H       
  26 H26           -0.5289     1.8773     0.9072 H       
  27 H27            0.5123    -0.3556    -0.8948 H       
  28 H28            0.5293    -0.3651     0.8851 H       
  29 H29           -2.3149     1.3954     2.6887 H       
  30 H30           -1.5508     1.6462     5.0103 H       
  31 H31           -0.0804    -2.3680     4.9846 H       
  32 H32           -1.5306    -3.5132     2.6302 H       
  33 H33           -1.0110    -0.4457     7.0822 H       
  34 H34           -4.5392    -1.7031     2.4511 H       
  35 H35           -6.4722    -2.4054     1.1597 H       
  36 H36           -6.4517    -2.3771    -1.2877 H       
@<TRIPOS>BOND
   1    1    2 1
   2    1   24 1
   3    1   25 1
   4    1   26 1
   5    2    3 1
   6    2   27 1
   7    2   28 1
   8    3    4 1
   9    3    7 1
  10    4    5 2
  11    5    6 ar
  12    5   19 ar
  13    6    7 2
  14    6   16 ar
  15    7    8 1
  16    8    9 ar
  17    8   13 ar
  18    9   10 ar
  19    9   29 1
  20   10   11 ar
  21   10   30 1
  22   11   12 ar
  23   11   15 1
  24   12   13 ar
  25   12   31 1
  26   13   14 1
  27   14   32 1
  28   15   33 1
  29   16   17 ar
  30   16   34 1
  31   17   18 ar
  32   17   35 1
  33   18   19 ar
  34   18   36 1
  35   19   20 1
  36   20   21 1
  37   20   22 1
  38   20   23 1

#	End of record

