#	Name: ASD01903193
#	Creating user name:	WinNT
#	Creation time:	15. 06. 2019 19:54

#	Modifying user name:	WinNT
#	Modification time:	15. 06. 2019 19:54

#	Program:	/corina/corina34_cracker 3.40 0067  02.08.2006

@<TRIPOS>MOLECULE
ASD01903193
  29   31    0    0    0
SMALL
NO_CHARGES


@<TRIPOS>ATOM
   1 S1            -0.0242     1.7576    -0.0301 S.3     
   2 C2             0.0013    -0.0032    -0.0097 C.2     
   3 N3             1.2320    -0.4153    -0.0142 N.2     
   4 C4             2.1769     0.5142    -0.0322 C.2     
   5 C5             1.7377     1.7832    -0.0438 C.2     
   6 N6            -1.1185    -0.8216     0.0087 N.pl3   
   7 C7            -2.3870    -0.2623     0.1288 C.ar    
   8 N8            -2.5131     1.0407     0.3306 N.ar    
   9 C9            -3.6968     1.6124     0.4502 C.ar    
  10 C10           -4.8546     0.8670     0.3692 C.ar    
  11 C11           -4.7672    -0.5057     0.1579 C.ar    
  12 C12           -3.5102    -1.0754     0.0303 C.ar    
  13 C13            3.6232     0.1751    -0.0392 C.2     
  14 C14            4.6405     0.8842    -0.7061 C.2     
  15 N15            5.7762     0.2797    -0.4752 N.2     
  16 N16            5.5307    -0.8306     0.3418 N.pl3   
  17 C17            4.2073    -0.8760     0.6040 C.2     
  18 F18           -5.8818    -1.2645     0.0741 F       
  19 C19            2.6029     3.0170    -0.0652 C.3     
  20 H20           -1.0174    -1.7837    -0.0621 H       
  21 H21           -3.7596     2.6781     0.6141 H       
  22 H22           -5.8186     1.3436     0.4690 H       
  23 H23           -3.4045    -2.1375    -0.1344 H       
  24 H24            4.5058     1.7729    -1.3049 H       
  25 H25            6.1969    -1.4566     0.6662 H       
  26 H26            3.7016    -1.6152     1.2076 H       
  27 H27            2.8033     3.3023    -1.0979 H       
  28 H28            2.0868     3.8315     0.4431 H       
  29 H29            3.5442     2.8095     0.4437 H       
@<TRIPOS>BOND
   1    1    2 1
   2    1    5 1
   3    2    3 2
   4    2    6 1
   5    3    4 1
   6    4    5 2
   7    4   13 1
   8    5   19 1
   9    6    7 1
  10    6   20 1
  11    7    8 ar
  12    7   12 ar
  13    8    9 ar
  14    9   10 ar
  15    9   21 1
  16   10   11 ar
  17   10   22 1
  18   11   12 ar
  19   11   18 1
  20   12   23 1
  21   13   14 1
  22   13   17 2
  23   14   15 2
  24   14   24 1
  25   15   16 1
  26   16   17 1
  27   16   25 1
  28   17   26 1
  29   19   27 1
  30   19   28 1
  31   19   29 1

#	End of record

