#	Name: ASD01813429
#	Creating user name:	WinNT
#	Creation time:	15. 06. 2019 19:30

#	Modifying user name:	WinNT
#	Modification time:	15. 06. 2019 19:30

#	Program:	/corina/corina34_cracker 3.40 0067  02.08.2006

@<TRIPOS>MOLECULE
ASD01813429
  46   49    0    0    0
SMALL
NO_CHARGES


@<TRIPOS>ATOM
   1 C1            -0.0167     1.3820     0.0096 C.ar    
   2 C2             0.0021    -0.0041     0.0020 C.ar    
   3 C3             1.1959    -0.6932    -0.0127 C.ar    
   4 C4             2.4016     0.0019    -0.0200 C.ar    
   5 C5             2.3831     1.4075    -0.0128 C.ar    
   6 C6             1.1665     2.0939     0.0022 C.ar    
   7 N7             3.6010    -0.6771    -0.0337 N.pl3   
   8 C8             4.7870    -0.0549    -0.0404 C.2     
   9 C9             4.8957     1.3208    -0.0340 C.2     
  10 C10            3.6667     2.1313    -0.0207 C.2     
  11 O11            3.7091     3.3491    -0.0150 O.2     
  12 C12            6.2161     1.9660    -0.0412 C.2     
  13 O13            6.3092     3.3109    -0.0348 O.3     
  14 O14            7.2244     1.2870    -0.0529 O.2     
  15 C15            3.5775    -2.1419    -0.0409 C.3     
  16 C16            3.5572    -2.6371    -1.4640 C.ar    
  17 N17            2.4062    -2.7376    -2.1000 N.ar    
  18 C18            2.3343    -3.1647    -3.3442 C.ar    
  19 C19            3.4871    -3.5286    -4.0367 C.ar    
  20 C20            4.7227    -3.4333    -3.3901 C.ar    
  21 C21            4.7466    -2.9737    -2.0847 C.ar    
  22 C22            3.4046    -4.0099    -5.4375 C.ar    
  23 F23            1.1476     3.4448     0.0091 F       
  24 C24            2.5018    -5.0238    -5.7918 C.ar    
  25 C25            2.4654    -5.4370    -7.1196 C.ar    
  26 C26            3.3104    -4.8413    -8.0339 C.ar    
  27 N27            4.1490    -3.8897    -7.6679 N.ar    
  28 C28            4.2173    -3.4596    -6.4239 C.ar    
  29 O29            1.6865    -5.5862    -4.8644 O.3     
  30 C30            0.7997    -6.6115    -5.3165 C.3     
  31 H31           -0.9604     1.9071     0.0170 H       
  32 H32           -0.9295    -0.5505     0.0080 H       
  33 H33            1.1956    -1.7731    -0.0181 H       
  34 H34            5.6884    -0.6497    -0.0508 H       
  35 H35            7.1990     3.6894    -0.0400 H       
  36 H36            4.4660    -2.5220     0.4634 H       
  37 H37            2.6863    -2.4936     0.4789 H       
  38 H38            1.3730    -3.2337    -3.8316 H       
  39 H39            5.6358    -3.7072    -3.8975 H       
  40 H40            5.6831    -2.8866    -1.5538 H       
  41 H41            1.7842    -6.2150    -7.4313 H       
  42 H42            3.2854    -5.1591    -9.0658 H       
  43 H43            4.9172    -2.6787    -6.1659 H       
  44 H44            0.2062    -6.9746    -4.4775 H       
  45 H45            0.1374    -6.2074    -6.0821 H       
  46 H46            1.3791    -7.4346    -5.7349 H       
@<TRIPOS>BOND
   1    1    2 ar
   2    1    6 ar
   3    1   31 1
   4    2    3 ar
   5    2   32 1
   6    3    4 ar
   7    3   33 1
   8    4    5 ar
   9    4    7 1
  10    5    6 ar
  11    5   10 1
  12    6   23 1
  13    7    8 1
  14    7   15 1
  15    8    9 2
  16    8   34 1
  17    9   10 1
  18    9   12 1
  19   10   11 2
  20   12   13 1
  21   12   14 2
  22   13   35 1
  23   15   16 1
  24   15   36 1
  25   15   37 1
  26   16   17 ar
  27   16   21 ar
  28   17   18 ar
  29   18   19 ar
  30   18   38 1
  31   19   20 ar
  32   19   22 1
  33   20   21 ar
  34   20   39 1
  35   21   40 1
  36   22   24 ar
  37   22   28 ar
  38   24   25 ar
  39   24   29 1
  40   25   26 ar
  41   25   41 1
  42   26   27 ar
  43   26   42 1
  44   27   28 ar
  45   28   43 1
  46   29   30 1
  47   30   44 1
  48   30   45 1
  49   30   46 1

#	End of record

