#	Name: ASD01028353
#	Creating user name:	WinNT
#	Creation time:	15. 06. 2019 18:57

#	Modifying user name:	WinNT
#	Modification time:	15. 06. 2019 18:57

#	Program:	/corina/corina34_cracker 3.40 0067  02.08.2006

@<TRIPOS>MOLECULE
ASD01028353
  52   56    0    0    0
SMALL
NO_CHARGES


@<TRIPOS>ATOM
   1 C1            -0.0193     1.4131     0.0170 C.ar    
   2 C2            -0.0015    -0.0027     0.0281 C.ar    
   3 C3             1.2091     2.1117     0.0191 C.ar    
   4 C4             2.3772     1.3702     0.0319 C.ar    
   5 C5             2.3124    -0.0172     0.0422 C.ar    
   6 N6             1.1662    -0.6563     0.0406 N.ar    
   7 O7             1.2420     3.4670     0.0084 O.3     
   8 C8             2.5261     4.0856     0.1105 C.3     
   9 C9             2.5384     5.3547    -0.7021 C.2     
  10 N10            3.5178     5.7537    -1.5427 N.pl3   
  11 C11            3.1055     6.9587    -2.0606 C.2     
  12 N12            1.9265     7.2235    -1.5220 N.2     
  13 N13            1.5988     6.2669    -0.7251 N.2     
  14 N14            4.7432     5.2078    -1.9301 N.2     
  15 C15            5.5117     5.8381    -2.7906 C.2     
  16 C16            5.1166     7.0765    -3.3395 C.2     
  17 C17            3.9290     7.6326    -2.9823 C.2     
  18 C18            6.8099     5.2406    -3.1888 C.ar    
  19 C19           -1.2196    -0.7017     0.0262 C.ar    
  20 C20            7.2109     4.0182    -2.6530 C.ar    
  21 C21            8.4194     3.4668    -3.0274 C.ar    
  22 C22            9.2321     4.1250    -3.9328 C.ar    
  23 C23            8.8391     5.3386    -4.4678 C.ar    
  24 C24            7.6302     5.8967    -4.1045 C.ar    
  25 C25           -2.4049    -0.0027     0.0137 C.ar    
  26 C26           -2.4107     1.3955     0.0023 C.ar    
  27 C27           -1.2447     2.0964     0.0101 C.ar    
  28 O28           -3.5830    -0.6789     0.0119 O.3     
  29 C29           -4.7794     0.1024    -0.0014 C.3     
  30 C30            2.8184     4.4154     1.5757 C.3     
  31 C31            2.9294     3.1175     2.3782 C.3     
  32 H32            3.3355     1.8683     0.0335 H       
  33 H33            3.2307    -0.5857     0.0521 H       
  34 H34            3.2886     3.4046    -0.2677 H       
  35 H35            5.7587     7.5831    -4.0448 H       
  36 H36            3.6215     8.5803    -3.3992 H       
  37 H37           -1.2260    -1.7817     0.0342 H       
  38 H38            6.5773     3.5036    -1.9458 H       
  39 H39            8.7313     2.5197    -2.6125 H       
  40 H40           10.1771     3.6900    -4.2227 H       
  41 H41            9.4777     5.8484    -5.1740 H       
  42 H42            7.3244     6.8443    -4.5229 H       
  43 H43           -3.3518     1.9253    -0.0082 H       
  44 H44           -1.2622     3.1762     0.0011 H       
  45 H45           -5.6455    -0.5594    -0.0015 H       
  46 H46           -4.8080     0.7381     0.8835 H       
  47 H47           -4.7973     0.7243    -0.8964 H       
  48 H48            3.7565     4.9662     1.6440 H       
  49 H49            2.0094     5.0241     1.9794 H       
  50 H50            1.9913     2.5667     2.3099 H       
  51 H51            3.7384     2.5087     1.9744 H       
  52 H52            3.1376     3.3524     3.4220 H       
@<TRIPOS>BOND
   1    1    2 ar
   2    1    3 ar
   3    1   27 ar
   4    2   19 ar
   5    2    6 ar
   6    3    4 ar
   7    3    7 1
   8    4    5 ar
   9    4   32 1
  10    5    6 ar
  11    5   33 1
  12    7    8 1
  13    8    9 1
  14    8   30 1
  15    8   34 1
  16    9   10 1
  17    9   13 2
  18   10   11 1
  19   10   14 1
  20   11   12 2
  21   11   17 1
  22   12   13 1
  23   14   15 2
  24   15   16 1
  25   15   18 1
  26   16   17 2
  27   16   35 1
  28   17   36 1
  29   18   20 ar
  30   18   24 ar
  31   19   25 ar
  32   19   37 1
  33   20   21 ar
  34   20   38 1
  35   21   22 ar
  36   21   39 1
  37   22   23 ar
  38   22   40 1
  39   23   24 ar
  40   23   41 1
  41   24   42 1
  42   25   26 ar
  43   25   28 1
  44   26   27 ar
  45   26   43 1
  46   27   44 1
  47   28   29 1
  48   29   45 1
  49   29   46 1
  50   29   47 1
  51   30   31 1
  52   30   48 1
  53   30   49 1
  54   31   50 1
  55   31   51 1
  56   31   52 1

#	End of record

