#	Name: ASD01881059
#	Creating user name:	WinNT
#	Creation time:	15. 06. 2019 19:41

#	Modifying user name:	WinNT
#	Modification time:	15. 06. 2019 19:41

#	Program:	/corina/corina34_cracker 3.40 0067  02.08.2006

@<TRIPOS>MOLECULE
ASD01881059
  39   41    0    0    0
SMALL
NO_CHARGES


@<TRIPOS>ATOM
   1 O1            -0.0177     1.4528     0.0100 O.3     
   2 C2             0.0021    -0.0041     0.0020 C.3     
   3 C3             1.5020    -0.3567    -0.0142 C.3     
   4 N4             2.1700     0.9538    -0.0135 N.am    
   5 C5             1.2374     1.9159     0.0005 C.2     
   6 C6            -0.6652    -0.5565     1.2632 C.3     
   7 O7            -2.0581    -0.2381     1.2435 O.3     
   8 O8             1.5070     3.1008     0.0039 O.2     
   9 C9             3.5539     1.1619    -0.0256 C.ar    
  10 C10            4.0633     2.4537    -0.0236 C.ar    
  11 C11            5.4295     2.6558    -0.0356 C.ar    
  12 C12            6.2899     1.5733    -0.0501 C.ar    
  13 C13            5.7858     0.2857    -0.0527 C.ar    
  14 C14            4.4206     0.0769    -0.0340 C.ar    
  15 C15           -2.8010    -0.6590     2.2977 C.ar    
  16 C16           -2.2051    -1.3644     3.3322 C.ar    
  17 C17           -2.9627    -1.7922     4.4047 C.ar    
  18 C18           -4.3199    -1.5212     4.4563 C.ar    
  19 C19           -4.9286    -0.8213     3.4368 C.ar    
  20 C20           -4.1732    -0.3777     2.3490 C.ar    
  21 C21           -4.8183     0.3720     1.2542 C.2     
  22 O22           -4.1574     0.7565     0.3088 O.2     
  23 N23           -6.1402     0.6307     1.3020 N.am    
  24 H24           -0.4904    -0.3880    -0.8914 H       
  25 H25            1.7715    -0.9243     0.8765 H       
  26 H26            1.7544    -0.9146    -0.9159 H       
  27 H27           -0.5402    -1.6388     1.2960 H       
  28 H28           -0.2029    -0.1105     2.1438 H       
  29 H29            3.3918     3.2996    -0.0129 H       
  30 H30            5.8263     3.6602    -0.0340 H       
  31 H31            7.3578     1.7339    -0.0598 H       
  32 H32            6.4603    -0.5577    -0.0647 H       
  33 H33            4.0275    -0.9290    -0.0360 H       
  34 H34           -1.1474    -1.5798     3.2989 H       
  35 H35           -2.4940    -2.3416     5.2078 H       
  36 H36           -4.9041    -1.8602     5.2991 H       
  37 H37           -5.9874    -0.6129     3.4809 H       
  38 H38           -6.6674     0.3239     2.0562 H       
  39 H39           -6.5643     1.1236     0.5823 H       
@<TRIPOS>BOND
   1    1    2 1
   2    1    5 1
   3    2    3 1
   4    2    6 1
   5    2   24 1
   6    3    4 1
   7    3   25 1
   8    3   26 1
   9    4    5 am
  10    4    9 1
  11    5    8 2
  12    6    7 1
  13    6   27 1
  14    6   28 1
  15    7   15 1
  16    9   10 ar
  17    9   14 ar
  18   10   11 ar
  19   10   29 1
  20   11   12 ar
  21   11   30 1
  22   12   13 ar
  23   12   31 1
  24   13   14 ar
  25   13   32 1
  26   14   33 1
  27   15   16 ar
  28   15   20 ar
  29   16   17 ar
  30   16   34 1
  31   17   18 ar
  32   17   35 1
  33   18   19 ar
  34   18   36 1
  35   19   20 ar
  36   19   37 1
  37   20   21 1
  38   21   22 2
  39   21   23 am
  40   23   38 1
  41   23   39 1

#	End of record

