#	Name: ASD01230768
#	Creating user name:	WinNT
#	Creation time:	15. 06. 2019 19:15

#	Modifying user name:	WinNT
#	Modification time:	15. 06. 2019 19:15

#	Program:	/corina/corina34_cracker 3.40 0067  02.08.2006

@<TRIPOS>MOLECULE
ASD01230768
  30   32    0    0    0
SMALL
NO_CHARGES


@<TRIPOS>ATOM
   1 C1            -0.0166     1.3738     0.0096 C.2     
   2 C2             0.0021    -0.0041     0.0020 C.2     
   3 C3            -1.2145    -0.7001     0.0078 C.2     
   4 C4            -2.3849    -0.0392     0.0099 C.2     
   5 N5            -2.4623     1.3311     0.0007 N.pl3   
   6 C6            -1.3175     2.0758     0.0320 C.2     
   7 C7            -3.8099     1.9043    -0.0494 C.3     
   8 C8            -3.8783     3.1898     0.7801 C.3     
   9 S9            -2.6222     4.3261     0.1123 S.o2    
  10 N10           -1.2621     3.3847     0.0819 N.am    
  11 C11            1.2496     2.1410     0.0016 C.ar    
  12 C12            2.0223     2.2307     1.1612 C.ar    
  13 O13           -2.8870     4.6255    -1.2513 O.2     
  14 O14           -2.3215     5.3519     1.0485 O.2     
  15 C15            1.6786     2.7726    -1.1662 C.ar    
  16 C16            2.8592     3.4865    -1.1688 C.ar    
  17 C17            3.6200     3.5779    -0.0167 C.ar    
  18 C18            3.2049     2.9500     1.1458 C.ar    
  19 F19            1.6166     1.6179     2.2948 F       
  20 F20            3.9526     3.0434     2.2671 F       
  21 H21            0.9399    -0.5395    -0.0086 H       
  22 H22           -1.2114    -1.7801     0.0101 H       
  23 H23           -3.3018    -0.6097     0.0189 H       
  24 H24           -4.0663     2.1302    -1.0845 H       
  25 H25           -4.5230     1.1818     0.3476 H       
  26 H26           -4.8684     3.6370     0.6913 H       
  27 H27           -3.6616     2.9694     1.8253 H       
  28 H28            1.0873     2.7025    -2.0672 H       
  29 H29            3.1907     3.9751    -2.0731 H       
  30 H30            4.5434     4.1379    -0.0252 H       
@<TRIPOS>BOND
   1    1    2 2
   2    1   11 1
   3    1    6 1
   4    2    3 1
   5    2   21 1
   6    3    4 2
   7    3   22 1
   8    4    5 1
   9    4   23 1
  10    5    6 1
  11    5    7 1
  12    6   10 2
  13    7    8 1
  14    7   24 1
  15    7   25 1
  16    8    9 1
  17    8   26 1
  18    8   27 1
  19    9   10 am
  20    9   13 2
  21    9   14 2
  22   11   12 ar
  23   11   15 ar
  24   12   19 1
  25   12   18 ar
  26   15   16 ar
  27   15   28 1
  28   16   17 ar
  29   16   29 1
  30   17   18 ar
  31   17   30 1
  32   18   20 1

#	End of record

