#	Name: ASD03740180
#	Creating user name:	WinNT
#	Creation time:	15. 06. 2019 20:46

#	Modifying user name:	WinNT
#	Modification time:	15. 06. 2019 20:46

#	Program:	/corina/corina34_cracker 3.40 0067  02.08.2006

@<TRIPOS>MOLECULE
ASD03740180
  52   54    0    0    0
SMALL
NO_CHARGES


@<TRIPOS>ATOM
   1 Cl1            0.0000     0.0000     0.0000 Cl      
   2 H2             0.0000     1.3700     0.0000 H       
   3 C3            12.1262    11.6025     8.0962 C.ar    
   4 C4            12.1451    10.2130     8.0885 C.ar    
   5 C5            10.9815     9.4977     8.0958 C.ar    
   6 C6             9.7582    10.1638     8.1115 C.ar    
   7 C7             9.7376    11.5716     8.1197 C.ar    
   8 C8            10.9424    12.2816     8.1168 C.ar    
   9 N9             8.4522     9.7487     8.1219 N.pl3   
  10 N10            7.6144    10.8685     8.1364 N.2     
  11 C11            8.3280    11.9614     8.1357 C.2     
  12 C12            8.0047     8.3537     8.1179 C.3     
  13 C13            7.8653     7.8668     9.5372 C.ar    
  14 C14            6.6615     8.0090    10.2016 C.ar    
  15 C15            6.5336     7.5624    11.5036 C.ar    
  16 C16            7.6094     6.9731    12.1410 C.ar    
  17 C17            8.8130     6.8301    11.4762 C.ar    
  18 C18            8.9396     7.2728    10.1728 C.ar    
  19 O19            7.8475    13.2329     8.1480 O.3     
  20 C20            6.4273    13.3897     8.1627 C.3     
  21 C21            6.0787    14.8794     8.1751 C.3     
  22 N22            6.5249    15.4972     6.9192 N.3     
  23 C23            6.0004    16.8690     6.7896 C.3     
  24 C24            7.2124    17.8066     6.6071 C.3     
  25 C25            8.3147    16.8533     6.0750 C.3     
  26 C26            8.0008    15.5489     6.8493 C.3     
  27 C27           13.4251    12.3667     8.0879 C.3     
  28 H28           13.0913     9.6925     8.0763 H       
  29 H29           11.0098     8.4181     8.0890 H       
  30 H30           10.9361    13.3616     8.1230 H       
  31 H31            7.0413     8.2826     7.6131 H       
  32 H32            8.7361     7.7390     7.5931 H       
  33 H33            5.8210     8.4694     9.7037 H       
  34 H34            5.5933     7.6742    12.0229 H       
  35 H35            7.5098     6.6249    13.1584 H       
  36 H36            9.6536     6.3700    11.9743 H       
  37 H37            9.8799     7.1610     9.6534 H       
  38 H38            6.0011    12.9242     7.2740 H       
  39 H39            6.0183    12.9135     9.0538 H       
  40 H40            5.0000    14.9994     8.2758 H       
  41 H41            6.5780    15.3624     9.0150 H       
  42 H42            5.3462    16.9353     5.9203 H       
  43 H43            5.4520    17.1431     7.6908 H       
  44 H44            6.9910    18.5852     5.8771 H       
  45 H45            7.5085    18.2438     7.5607 H       
  46 H46            8.2151    16.7028     5.0000 H       
  47 H47            9.3078    17.2266     6.3251 H       
  48 H48            8.4269    15.5908     7.8517 H       
  49 H49            8.3856    14.6845     6.3083 H       
  50 H50           13.7284    12.5564     7.0583 H       
  51 H51           13.2919    13.3152     8.6081 H       
  52 H52           14.1944    11.7811     8.5912 H       
@<TRIPOS>BOND
   1    1    2 1
   2    3    4 ar
   3    3   27 1
   4    3    8 ar
   5    4    5 ar
   6    4   28 1
   7    5    6 ar
   8    5   29 1
   9    6    7 ar
  10    6    9 1
  11    7    8 ar
  12    7   11 1
  13    8   30 1
  14    9   10 1
  15    9   12 1
  16   10   11 2
  17   11   19 1
  18   12   13 1
  19   12   31 1
  20   12   32 1
  21   13   14 ar
  22   13   18 ar
  23   14   15 ar
  24   14   33 1
  25   15   16 ar
  26   15   34 1
  27   16   17 ar
  28   16   35 1
  29   17   18 ar
  30   17   36 1
  31   18   37 1
  32   19   20 1
  33   20   21 1
  34   20   38 1
  35   20   39 1
  36   21   22 1
  37   21   40 1
  38   21   41 1
  39   22   23 1
  40   22   26 1
  41   23   24 1
  42   23   42 1
  43   23   43 1
  44   24   25 1
  45   24   44 1
  46   24   45 1
  47   25   26 1
  48   25   46 1
  49   25   47 1
  50   26   48 1
  51   26   49 1
  52   27   50 1
  53   27   51 1
  54   27   52 1

#	End of record

