#	Name: ASD01720195
#	Creating user name:	WinNT
#	Creation time:	15. 06. 2019 19:23

#	Modifying user name:	WinNT
#	Modification time:	15. 06. 2019 19:23

#	Program:	/corina/corina34_cracker 3.40 0067  02.08.2006

@<TRIPOS>MOLECULE
ASD01720195
  57   60    0    0    0
SMALL
NO_CHARGES


@<TRIPOS>ATOM
   1 C1            -1.0612     2.2296     1.5154 C.ar    
   2 N2            -1.2074     0.9302     1.6892 N.ar    
   3 C3            -0.1804     0.1021     1.6697 C.ar    
   4 C4             1.1016     0.5687     1.4644 C.ar    
   5 C5             1.3024     1.9391     1.2757 C.ar    
   6 C6             0.1866     2.7799     1.3040 C.ar    
   7 C7             2.6633     2.4861     1.0519 C.ar    
   8 C8             2.9140     3.3513    -0.0164 C.ar    
   9 C9             4.2009     3.8344    -0.1821 C.ar    
  10 C10            5.1877     3.4488     0.7065 C.ar    
  11 N11            4.9209     2.6299     1.7058 N.ar    
  12 C12            3.7110     2.1499     1.9071 C.ar    
  13 C13            6.5900     3.9719     0.5304 C.3     
  14 C14            7.3421     3.0891    -0.4675 C.3     
  15 N15            7.2843     3.9517     1.8202 N.pl3   
  16 C16            8.3391     4.8173     2.0520 C.ar    
  17 N17            8.9552     4.7852     3.2238 N.ar    
  18 C18            9.9710     5.6033     3.4772 C.ar    
  19 C19           10.3816     6.4993     2.4898 C.ar    
  20 C20            9.7119     6.5006     1.2807 C.ar    
  21 N21            8.7108     5.6538     1.0939 N.ar    
  22 N22           10.6152     5.5672     4.7086 N.am    
  23 C23           11.4969     6.4728     5.1537 C.2     
  24 O24           11.9739     6.2087     6.3751 O.3     
  25 O25           11.8323     7.4451     4.5069 O.2     
  26 C26           11.3757     4.9776     6.8746 C.3     
  27 C27           10.4354     4.5320     5.7380 C.3     
  28 C28           10.8584     3.1655     5.1952 C.3     
  29 C29            1.8118     3.7481    -0.9643 C.3     
  30 F30           10.9017     2.2403     6.2437 F       
  31 C31           12.2440     3.2772     4.5561 C.3     
  32 C32           -0.4108    -1.3729     1.8750 C.3     
  33 F33           -1.7850    -1.6245     1.9490 F       
  34 F34            0.1364    -2.0842     0.8017 F       
  35 F35            0.2024    -1.7795     3.0649 F       
  36 H36           -1.9300     2.8708     1.5344 H       
  37 H37            1.9377    -0.1148     1.4500 H       
  38 H38            0.2990     3.8446     1.1621 H       
  39 H39            4.4316     4.5048    -0.9967 H       
  40 H40            3.5314     1.4820     2.7366 H       
  41 H41            6.5519     4.9943     0.1543 H       
  42 H42            7.3802     2.0667    -0.0914 H       
  43 H43            6.8255     3.1041    -1.4272 H       
  44 H44            8.3563     3.4674    -0.5949 H       
  45 H45            7.0048     3.3317     2.5118 H       
  46 H46           11.2039     7.1768     2.6663 H       
  47 H47           10.0043     7.1819     0.4954 H       
  48 H48           12.1438     4.2260     7.0566 H       
  49 H49           10.8059     5.1710     7.7835 H       
  50 H50            9.4023     4.5044     6.0844 H       
  51 H51           10.1388     2.8332     4.4469 H       
  52 H52            1.3208     4.6482    -0.5943 H       
  53 H53            2.2333     3.9435    -1.9503 H       
  54 H54            1.0839     2.9397    -1.0340 H       
  55 H55           12.9508     3.6696     5.2872 H       
  56 H56           12.5724     2.2917     4.2259 H       
  57 H57           12.1960     3.9500     3.6998 H       
@<TRIPOS>BOND
   1    1    2 ar
   2    1    6 ar
   3    1   36 1
   4    2    3 ar
   5    3   32 1
   6    3    4 ar
   7    4    5 ar
   8    4   37 1
   9    5    6 ar
  10    5    7 1
  11    6   38 1
  12    7    8 ar
  13    7   12 ar
  14    8    9 ar
  15    8   29 1
  16    9   10 ar
  17    9   39 1
  18   10   11 ar
  19   10   13 1
  20   11   12 ar
  21   12   40 1
  22   13   14 1
  23   13   15 1
  24   13   41 1
  25   14   42 1
  26   14   43 1
  27   14   44 1
  28   15   16 1
  29   15   45 1
  30   16   17 ar
  31   16   21 ar
  32   17   18 ar
  33   18   19 ar
  34   18   22 1
  35   19   20 ar
  36   19   46 1
  37   20   21 ar
  38   20   47 1
  39   22   23 am
  40   22   27 1
  41   23   24 1
  42   23   25 2
  43   24   26 1
  44   26   27 1
  45   26   48 1
  46   26   49 1
  47   27   28 1
  48   27   50 1
  49   28   30 1
  50   28   31 1
  51   28   51 1
  52   29   52 1
  53   29   53 1
  54   29   54 1
  55   31   55 1
  56   31   56 1
  57   31   57 1
  58   32   33 1
  59   32   34 1
  60   32   35 1

#	End of record

