#	Name: ASD05300018
#	Creating user name:	WinNT
#	Creation time:	15. 06. 2019 20:58

#	Modifying user name:	WinNT
#	Modification time:	15. 06. 2019 20:58

#	Program:	/corina/corina34_cracker 3.40 0067  02.08.2006

@<TRIPOS>MOLECULE
ASD05300018
  48   51    0    0    0
SMALL
NO_CHARGES


@<TRIPOS>ATOM
   1 N1            -0.0178     1.4648     0.0101 N.3     
   2 C2             0.0021    -0.0041     0.0020 C.3     
   3 C3            -1.4333    -0.5336     0.0129 C.3     
   4 C4            -1.4126    -2.0635     0.0045 C.3     
   5 C5            -0.6964    -2.5569    -1.2543 C.3     
   6 C6             0.7390    -2.0273    -1.2652 C.3     
   7 C7             0.7182    -0.4975    -1.2568 C.3     
   8 N8            -0.6766    -4.0217    -1.2624 N.am    
   9 C9            -0.5768    -4.6879    -2.4298 C.2     
  10 O10           -0.5035    -4.0747    -3.4735 O.2     
  11 N11           -0.5585    -6.0355    -2.4372 N.am    
  12 C12           -0.4586    -6.7056    -3.6066 C.2     
  13 C13            0.6803    -6.5389    -4.3970 C.2     
  14 C14            0.8188    -7.2528    -5.5858 C.2     
  15 C15           -0.1789    -8.1436    -5.9809 C.2     
  16 C16           -1.3193    -8.3034    -5.1970 C.2     
  17 C17           -1.4713    -7.5698    -4.0169 C.2     
  18 C18           -2.7178    -7.6854    -3.2553 C.2     
  19 C19           -2.8244    -7.6818    -1.9661 C.2     
  20 C20           -1.7115    -7.5685    -1.0171 C.2     
  21 C21           -0.6344    -6.7204    -1.2755 C.2     
  22 C22            0.3792    -6.5728    -0.3245 C.2     
  23 C23            0.3396    -7.3047     0.8605 C.2     
  24 C24           -0.7139    -8.1870     1.0983 C.2     
  25 C25           -1.7360    -8.3202     0.1609 C.2     
  26 H26            0.9191     1.8392     0.0032 H       
  27 H27           -0.5563     1.8234    -0.7642 H       
  28 H28            0.5293    -0.3651     0.8851 H       
  29 H29           -1.9435    -0.1821     0.9097 H       
  30 H30           -1.9605    -0.1726    -0.8702 H       
  31 H31           -0.8854    -2.4246     0.8875 H       
  32 H32           -2.4352    -2.4408     0.0122 H       
  33 H33           -1.2236    -2.1958    -2.1374 H       
  34 H34            1.2661    -2.3884    -0.3821 H       
  35 H35            1.2492    -2.3788    -2.1620 H       
  36 H36            0.1910    -0.1364    -2.1398 H       
  37 H37            1.7408    -0.1202    -1.2645 H       
  38 H38           -0.7352    -4.5122    -0.4276 H       
  39 H39            1.4559    -5.8546    -4.0863 H       
  40 H40            1.6966    -7.1163    -6.1999 H       
  41 H41           -0.0675    -8.7089    -6.8943 H       
  42 H42           -2.0891    -8.9965    -5.5025 H       
  43 H43           -3.6317    -7.7822    -3.8225 H       
  44 H44           -3.8183    -7.7694    -1.5529 H       
  45 H45            1.1955    -5.8901    -0.5088 H       
  46 H46            1.1240    -7.1891     1.5939 H       
  47 H47           -0.7376    -8.7682     2.0082 H       
  48 H48           -2.5512    -9.0039     0.3464 H       
@<TRIPOS>BOND
   1    1    2 1
   2    1   26 1
   3    1   27 1
   4    2    3 1
   5    2    7 1
   6    2   28 1
   7    3    4 1
   8    3   29 1
   9    3   30 1
  10    4    5 1
  11    4   31 1
  12    4   32 1
  13    5    6 1
  14    5    8 1
  15    5   33 1
  16    6    7 1
  17    6   34 1
  18    6   35 1
  19    7   36 1
  20    7   37 1
  21    8    9 am
  22    8   38 1
  23    9   10 2
  24    9   11 am
  25   11   12 1
  26   11   21 1
  27   12   13 2
  28   12   17 1
  29   13   14 1
  30   13   39 1
  31   14   15 2
  32   14   40 1
  33   15   16 1
  34   15   41 1
  35   16   17 2
  36   16   42 1
  37   17   18 1
  38   18   19 2
  39   18   43 1
  40   19   20 1
  41   19   44 1
  42   20   21 2
  43   20   25 1
  44   21   22 1
  45   22   23 2
  46   22   45 1
  47   23   24 1
  48   23   46 1
  49   24   25 2
  50   24   47 1
  51   25   48 1

#	End of record

