#	Name: ASD03920001
#	Creating user name:	WinNT
#	Creation time:	15. 06. 2019 20:47

#	Modifying user name:	WinNT
#	Modification time:	15. 06. 2019 20:47

#	Program:	/corina/corina34_cracker 3.40 0067  02.08.2006

@<TRIPOS>MOLECULE
ASD03920001
  55   58    0    0    0
SMALL
NO_CHARGES


@<TRIPOS>ATOM
   1 C1            -0.0184     1.5028     0.0103 C.2     
   2 C2             0.0021    -0.0041     0.0020 C.3     
   3 O3             1.0236     2.1234     0.0037 O.2     
   4 N4            -1.1946     2.1607     0.0195 N.am    
   5 C5            -1.2145     3.6256     0.0275 C.3     
   6 C6            -2.5315     4.1210    -0.5732 C.3     
   7 C7            -3.7021     3.5905     0.2569 C.3     
   8 C8            -3.5765     4.0944     1.6961 C.3     
   9 C9            -2.2595     3.5989     2.2968 C.3     
  10 C10           -1.0888     4.1294     1.4667 C.3     
  11 N11           -4.6975     3.5864     2.4909 N.pl3   
  12 N12           -5.9026     4.2518     2.7572 N.2     
  13 N13           -6.6363     3.4857     3.4870 N.2     
  14 C14           -5.9847     2.3348     3.7265 C.2     
  15 C15           -4.7710     2.3870     3.1020 C.2     
  16 C16           -6.4958     1.2045     4.5250 C.2     
  17 O17           -5.8142     0.2088     4.6750 O.2     
  18 N18           -7.7182     1.2755     5.0881 N.am    
  19 C19           -8.3477     0.2274     5.9046 C.3     
  20 C20           -9.7466     0.7391     6.3081 C.3     
  21 C21          -10.0500     1.8099     5.2270 C.3     
  22 C22           -8.6430     2.4197     4.9927 C.3     
  23 C23            1.4295    -0.4870    -0.0142 C.ar    
  24 C24            2.0965    -0.7152     1.1761 C.ar    
  25 C25            3.4069    -1.1585     1.1607 C.ar    
  26 C26            4.0507    -1.3732    -0.0437 C.ar    
  27 C27            3.3859    -1.1458    -1.2336 C.ar    
  28 C28            2.0721    -0.7079    -1.2201 C.ar    
  29 F29            1.4199    -0.4911    -2.3832 F       
  30 Cl30           1.2893    -0.4448     2.6890 Cl      
  31 H31           -0.4983    -0.3791     0.8948 H       
  32 H32           -0.5153    -0.3696    -0.8850 H       
  33 H33           -2.0280     1.6644     0.0207 H       
  34 H34           -0.3805     4.0035    -0.5638 H       
  35 H35           -2.5463     5.2109    -0.5672 H       
  36 H36           -2.6210     3.7621    -1.5985 H       
  37 H37           -4.6404     3.9435    -0.1711 H       
  38 H38           -3.6873     2.5007     0.2509 H       
  39 H39           -3.5913     5.1843     1.7021 H       
  40 H40           -2.1700     3.9578     3.3221 H       
  41 H41           -2.2447     2.5090     2.2908 H       
  42 H42           -0.1506     3.7764     1.8947 H       
  43 H43           -1.1036     5.2193     1.4727 H       
  44 H44           -4.0146     1.6161     3.0998 H       
  45 H45           -8.4420    -0.6894     5.3225 H       
  46 H46           -7.7490     0.0426     6.7965 H       
  47 H47          -10.4786    -0.0675     6.2681 H       
  48 H48           -9.7210     1.1894     7.3004 H       
  49 H49          -10.4361     1.3488     4.3179 H       
  50 H50          -10.7419     2.5623     5.6057 H       
  51 H51           -8.4140     3.1577     5.7614 H       
  52 H52           -8.5861     2.8719     4.0025 H       
  53 H53            3.9273    -1.3366     2.0901 H       
  54 H54            5.0739    -1.7186    -0.0546 H       
  55 H55            3.8895    -1.3137    -2.1741 H       
@<TRIPOS>BOND
   1    1    2 1
   2    1    3 2
   3    1    4 am
   4    2   23 1
   5    2   31 1
   6    2   32 1
   7    4    5 1
   8    4   33 1
   9    5    6 1
  10    5   10 1
  11    5   34 1
  12    6    7 1
  13    6   35 1
  14    6   36 1
  15    7    8 1
  16    7   37 1
  17    7   38 1
  18    8    9 1
  19    8   11 1
  20    8   39 1
  21    9   10 1
  22    9   40 1
  23    9   41 1
  24   10   42 1
  25   10   43 1
  26   11   12 1
  27   11   15 1
  28   12   13 2
  29   13   14 1
  30   14   15 2
  31   14   16 1
  32   15   44 1
  33   16   17 2
  34   16   18 am
  35   18   19 1
  36   18   22 1
  37   19   20 1
  38   19   45 1
  39   19   46 1
  40   20   21 1
  41   20   47 1
  42   20   48 1
  43   21   22 1
  44   21   49 1
  45   21   50 1
  46   22   51 1
  47   22   52 1
  48   23   24 ar
  49   23   28 ar
  50   24   25 ar
  51   24   30 1
  52   25   26 ar
  53   25   53 1
  54   26   27 ar
  55   26   54 1
  56   27   28 ar
  57   27   55 1
  58   28   29 1

#	End of record

