#	Name: ASD01911917
#	Creating user name:	WinNT
#	Creation time:	15. 06. 2019 19:58

#	Modifying user name:	WinNT
#	Modification time:	15. 06. 2019 19:58

#	Program:	/corina/corina34_cracker 3.40 0067  02.08.2006

@<TRIPOS>MOLECULE
ASD01911917
  36   38    0    0    0
SMALL
NO_CHARGES


@<TRIPOS>ATOM
   1 C1             0.6068     0.6674     0.4394 C.ar    
   2 C2            -0.0800     0.0133    -0.5784 C.ar    
   3 C3             0.4112     0.1146    -1.8760 C.ar    
   4 N4             1.5060     0.8242    -2.0944 N.ar    
   5 C5             2.1286     1.4296    -1.1031 C.ar    
   6 N6             1.6947     1.3575     0.1392 N.ar    
   7 O7            -1.2016    -0.7064    -0.3118 O.3     
   8 C8            -1.0959    -2.0610    -0.2708 C.ar    
   9 C9            -2.2180    -2.8382    -0.0118 C.ar    
  10 C10           -2.1105    -4.2186     0.0300 C.ar    
  11 C11           -0.8856    -4.8254    -0.1867 C.ar    
  12 C12            0.2373    -4.0512    -0.4462 C.ar    
  13 C13            0.1302    -2.6678    -0.4932 C.ar    
  14 N14            1.4756    -4.6652    -0.6652 N.am    
  15 C15            1.5331    -5.8716    -1.2632 C.2     
  16 C16            2.8303    -6.5672    -1.4011 C.ar    
  17 O17            0.5183    -6.3879    -1.6893 O.2     
  18 C18            3.9972    -5.9754    -0.9122 C.ar    
  19 F19           -3.2022    -4.9731     0.2829 F       
  20 C20            5.2098    -6.6238    -1.0396 C.ar    
  21 C21            5.2781    -7.8597    -1.6507 C.ar    
  22 C22            4.1185    -8.4633    -2.1449 C.ar    
  23 C23            2.8907    -7.8171    -2.0140 C.ar    
  24 C24            4.1910    -9.7450    -2.7793 C.1     
  25 N25            4.2484   -10.7618    -3.2826 N.1     
  26 F26           -3.4143    -2.2473     0.1999 F       
  27 H27            0.2543     0.6162     1.4590 H       
  28 H28           -0.0937    -0.3792    -2.6931 H       
  29 H29            3.0203     2.0009    -1.3148 H       
  30 H30           -0.8031    -5.9018    -0.1535 H       
  31 H31            1.0030    -2.0646    -0.6954 H       
  32 H32            2.2925    -4.2225    -0.3866 H       
  33 H33            3.9511    -5.0083    -0.4336 H       
  34 H34            6.1090    -6.1616    -0.6597 H       
  35 H35            6.2297    -8.3612    -1.7474 H       
  36 H36            1.9914    -8.2791    -2.3937 H       
@<TRIPOS>BOND
   1    1    2 ar
   2    1    6 ar
   3    1   27 1
   4    2    3 ar
   5    2    7 1
   6    3    4 ar
   7    3   28 1
   8    4    5 ar
   9    5    6 ar
  10    5   29 1
  11    7    8 1
  12    8    9 ar
  13    8   13 ar
  14    9   10 ar
  15    9   26 1
  16   10   11 ar
  17   10   19 1
  18   11   12 ar
  19   11   30 1
  20   12   13 ar
  21   12   14 1
  22   13   31 1
  23   14   15 am
  24   14   32 1
  25   15   16 1
  26   15   17 2
  27   16   18 ar
  28   16   23 ar
  29   18   20 ar
  30   18   33 1
  31   20   21 ar
  32   20   34 1
  33   21   22 ar
  34   21   35 1
  35   22   23 ar
  36   22   24 1
  37   23   36 1
  38   24   25 3

#	End of record

