#	Name: ASD01001031
#	Creating user name:	WinNT
#	Creation time:	15. 06. 2019 18:54

#	Modifying user name:	WinNT
#	Modification time:	15. 06. 2019 18:54

#	Program:	/corina/corina34_cracker 3.40 0067  02.08.2006

@<TRIPOS>MOLECULE
ASD01001031
  49   51    0    0    0
SMALL
NO_CHARGES


@<TRIPOS>ATOM
   1 C1             1.2427    -0.6964    -0.1877 C.ar    
   2 C2             0.4241    -0.4712     0.9033 C.ar    
   3 C3             2.2724     0.1809    -0.4719 C.ar    
   4 C4             0.6353     0.6313     1.7100 C.ar    
   5 C5             2.4836     1.2834     0.3348 C.ar    
   6 C6             1.6653     1.5083     1.4260 C.ar    
   7 C7             3.6068     2.2393     0.0255 C.3     
   8 C8             3.4404     2.7742    -1.3735 C.ar    
   9 C9             3.5782     3.3825     1.0071 C.ar    
  10 C10            4.9452     1.5062     0.1353 C.3     
  11 C11            2.2845     2.5065    -2.0828 C.ar    
  12 C12            4.4412     3.5373    -1.9454 C.ar    
  13 C13            4.7041     3.6835     1.7505 C.ar    
  14 C14            2.4278     4.1336     1.1600 C.ar    
  15 C15            5.0444     0.8278     1.5031 C.3     
  16 C16            2.1294     3.0019    -3.3640 C.ar    
  17 C17            4.2885     4.0279    -3.2287 C.ar    
  18 C18            4.6796     4.7357     2.6467 C.ar    
  19 C19            2.4016     5.1821     2.0604 C.ar    
  20 C20            6.4361     0.2139     1.6682 C.3     
  21 C21            3.1300     3.7653    -3.9357 C.ar    
  22 C22            3.5294     5.4870     2.7993 C.ar    
  23 N23            7.4434     1.2829     1.6906 N.3     
  24 C24            6.4943    -0.5584     2.9609 C.2     
  25 O25            7.0063    -0.0642     3.9374 O.2     
  26 O26            5.9774    -1.7954     3.0276 O.3     
  27 H27            1.0805    -1.5602    -0.8153 H       
  28 H28           -0.3807    -1.1565     1.1251 H       
  29 H29            2.9122     0.0048    -1.3240 H       
  30 H30           -0.0047     0.8076     2.5619 H       
  31 H31            1.8299     2.3701     2.0559 H       
  32 H32            5.0124     0.7529    -0.6496 H       
  33 H33            5.7610     2.2206     0.0240 H       
  34 H34            1.5027     1.9101    -1.6362 H       
  35 H35            5.3422     3.7504    -1.3894 H       
  36 H36            5.6028     3.0965     1.6313 H       
  37 H37            1.5497     3.9014     0.5757 H       
  38 H38            4.8775     1.5659     2.2877 H       
  39 H39            4.2906     0.0439     1.5754 H       
  40 H40            1.2266     2.7921    -3.9184 H       
  41 H41            5.0702     4.6243    -3.6754 H       
  42 H42            5.5590     4.9704     3.2280 H       
  43 H43            1.5029     5.7692     2.1796 H       
  44 H44            6.6380    -0.4582     0.8341 H       
  45 H45            3.0090     4.1520    -4.9368 H       
  46 H46            3.5089     6.3062     3.5028 H       
  47 H47            7.2779     1.9196     2.4556 H       
  48 H48            8.3760     0.9001     1.7340 H       
  49 H49            6.0383    -2.2514     3.8782 H       
@<TRIPOS>BOND
   1    1    2 ar
   2    1    3 ar
   3    1   27 1
   4    2    4 ar
   5    2   28 1
   6    3    5 ar
   7    3   29 1
   8    4    6 ar
   9    4   30 1
  10    5    6 ar
  11    5    7 1
  12    6   31 1
  13    7   10 1
  14    7    8 1
  15    7    9 1
  16    8   12 ar
  17    8   11 ar
  18    9   14 ar
  19    9   13 ar
  20   10   15 1
  21   10   32 1
  22   10   33 1
  23   11   16 ar
  24   11   34 1
  25   12   17 ar
  26   12   35 1
  27   13   18 ar
  28   13   36 1
  29   14   19 ar
  30   14   37 1
  31   15   20 1
  32   15   38 1
  33   15   39 1
  34   16   21 ar
  35   16   40 1
  36   17   21 ar
  37   17   41 1
  38   18   22 ar
  39   18   42 1
  40   19   22 ar
  41   19   43 1
  42   20   23 1
  43   20   24 1
  44   20   44 1
  45   21   45 1
  46   22   46 1
  47   23   47 1
  48   23   48 1
  49   24   25 2
  50   24   26 1
  51   26   49 1

#	End of record

