#	Name: ASD03731821
#	Creating user name:	WinNT
#	Creation time:	15. 06. 2019 20:46

#	Modifying user name:	WinNT
#	Modification time:	15. 06. 2019 20:46

#	Program:	/corina/corina34_cracker 3.40 0067  02.08.2006

@<TRIPOS>MOLECULE
ASD03731821
  34   35    0    0    0
SMALL
NO_CHARGES


@<TRIPOS>ATOM
   1 C1             0.3754     1.0900     1.9866 C.2     
   2 C2             0.2913    -0.2851     1.4556 C.ar    
   3 C3             1.3730    -0.8346     0.7699 C.ar    
   4 C4             1.2884    -2.1322     0.2716 C.ar    
   5 C5             0.1136    -2.8774     0.4637 C.ar    
   6 C6            -0.9581    -2.3196     1.1485 C.ar    
   7 C7            -0.8722    -1.0383     1.6459 C.ar    
   8 O8             1.3883     1.7428     1.8257 O.2     
   9 N9            -0.6727     1.6234     2.6449 N.am    
  10 S10           -0.5783     3.1657     3.2405 S.o2    
  11 O11           -1.8308     3.3719     3.8794 O.2     
  12 O12            0.6337     3.1815     3.9821 O.2     
  13 C13           -0.4360     4.2125     1.7659 C.3     
  14 O14            0.0255    -4.1404    -0.0195 O.3     
  15 C15           -1.1654    -4.7849     0.0930 C.ar    
  16 C16           -2.1189    -4.6622    -0.9074 C.ar    
  17 C17           -3.3302    -5.3199    -0.7904 C.ar    
  18 C18           -3.5904    -6.0994     0.3247 C.ar    
  19 C19           -2.6410    -6.2215     1.3217 C.ar    
  20 C20           -1.4274    -5.5712     1.2058 C.ar    
  21 F21           -4.2598    -5.2015    -1.7636 F       
  22 C22            2.3949    -2.7045    -0.4346 C.1     
  23 N23            3.2728    -3.1584    -0.9948 N.1     
  24 H24            2.2734    -0.2561     0.6252 H       
  25 H25           -1.8606    -2.8943     1.2952 H       
  26 H26           -1.7077    -0.6119     2.1811 H       
  27 H27           -1.4823     1.1040     2.7699 H       
  28 H28           -1.3140     4.0729     1.1351 H       
  29 H29           -0.3678     5.2577     2.0675 H       
  30 H30            0.4592     3.9359     1.2090 H       
  31 H31           -1.9157    -4.0537    -1.7762 H       
  32 H32           -4.5366    -6.6122     0.4154 H       
  33 H33           -2.8463    -6.8296     2.1904 H       
  34 H34           -0.6847    -5.6711     1.9835 H       
@<TRIPOS>BOND
   1    1    2 1
   2    1    8 2
   3    1    9 am
   4    2    3 ar
   5    2    7 ar
   6    3    4 ar
   7    3   24 1
   8    4    5 ar
   9    4   22 1
  10    5    6 ar
  11    5   14 1
  12    6    7 ar
  13    6   25 1
  14    7   26 1
  15    9   10 am
  16    9   27 1
  17   10   11 2
  18   10   12 2
  19   10   13 1
  20   13   28 1
  21   13   29 1
  22   13   30 1
  23   14   15 1
  24   15   16 ar
  25   15   20 ar
  26   16   17 ar
  27   16   31 1
  28   17   18 ar
  29   17   21 1
  30   18   19 ar
  31   18   32 1
  32   19   20 ar
  33   19   33 1
  34   20   34 1
  35   22   23 3

#	End of record

