#	Name: ASD07300902
#	Creating user name:	WinNT
#	Creation time:	15. 06. 2019 21:10

#	Modifying user name:	WinNT
#	Modification time:	15. 06. 2019 21:10

#	Program:	/corina/corina34_cracker 3.40 0067  02.08.2006

@<TRIPOS>MOLECULE
ASD07300902
  48   52    0    0    0
SMALL
NO_CHARGES


@<TRIPOS>ATOM
   1 N1             0.5041     1.7733    -0.5584 N.am    
   2 C2             0.3760     0.4317    -0.4002 C.2     
   3 N3             1.3945    -0.3745    -0.3273 N.2     
   4 C4             2.6578     0.0709    -0.4052 C.2     
   5 C5             2.8902     1.4457    -0.5699 C.2     
   6 C6             1.7321     2.3357    -0.6491 C.2     
   7 N7             3.8799    -0.5267    -0.3608 N.pl3   
   8 N8             4.8590     0.4657    -0.4964 N.2     
   9 C9             4.2846     1.6309    -0.6201 C.2     
  10 O10            1.8675     3.5380    -0.7921 O.2     
  11 C11            4.1176    -1.8984    -0.2054 C.ar    
  12 C12            3.4177    -2.8252    -0.9661 C.ar    
  13 N13            3.6382    -4.1168    -0.8224 N.ar    
  14 C14            4.5228    -4.5790     0.0393 C.ar    
  15 C15            5.2590    -3.7181     0.8324 C.ar    
  16 C16            5.0638    -2.3523     0.7104 C.ar    
  17 C17           -1.0102    -0.1514    -0.3038 C.3     
  18 C18           -1.4106    -0.5555     1.1249 C.3     
  19 C19           -2.0679    -1.7997     0.5046 C.3     
  20 C20           -1.0762    -1.6458    -0.6606 C.3     
  21 C21           -1.6856    -1.9174    -2.0119 C.2     
  22 N22           -1.1134    -2.5666    -2.9854 N.2     
  23 C23           -1.9588    -2.6099    -4.0303 C.2     
  24 C24           -3.0811    -1.9634    -3.6738 C.2     
  25 O25           -2.9073    -1.5361    -2.4077 O.3     
  26 C26           -1.6945    -3.2648    -5.3616 C.3     
  27 C27           -4.3061    -1.7590    -4.5274 C.3     
  28 C28            5.8466    -1.3818     1.5568 C.3     
  29 H29           -0.2877     2.3312    -0.6108 H       
  30 H30            4.7927     2.5762    -0.7411 H       
  31 H31            2.6848    -2.4845    -1.6825 H       
  32 H32            4.6743    -5.6447     0.1271 H       
  33 H33            5.9811    -4.1060     1.5356 H       
  34 H34           -1.7603     0.4539    -0.8128 H       
  35 H35           -0.5610    -0.7852     1.7680 H       
  36 H36           -2.1214     0.1282     1.5891 H       
  37 H37           -1.9190    -2.7086     1.0875 H       
  38 H38           -3.1077    -1.6462     0.2161 H       
  39 H39           -0.1352    -2.1736    -0.5057 H       
  40 H40           -2.0249    -4.3030    -5.3278 H       
  41 H41           -2.2408    -2.7349    -6.1420 H       
  42 H42           -0.6268    -3.2301    -5.5780 H       
  43 H43           -4.9956    -2.5899    -4.3783 H       
  44 H44           -4.7944    -0.8264    -4.2448 H       
  45 H45           -4.0142    -1.7130    -5.5766 H       
  46 H46            6.7168    -1.0341     1.0002 H       
  47 H47            5.2150    -0.5310     1.8124 H       
  48 H48            6.1742    -1.8785     2.4701 H       
@<TRIPOS>BOND
   1    1    2 1
   2    1    6 am
   3    1   29 1
   4    2    3 2
   5    2   17 1
   6    3    4 1
   7    4    5 2
   8    4    7 1
   9    5    6 1
  10    5    9 1
  11    6   10 2
  12    7    8 1
  13    7   11 1
  14    8    9 2
  15    9   30 1
  16   11   12 ar
  17   11   16 ar
  18   12   13 ar
  19   12   31 1
  20   13   14 ar
  21   14   15 ar
  22   14   32 1
  23   15   16 ar
  24   15   33 1
  25   16   28 1
  26   17   18 1
  27   17   20 1
  28   17   34 1
  29   18   19 1
  30   18   35 1
  31   18   36 1
  32   19   20 1
  33   19   37 1
  34   19   38 1
  35   20   21 1
  36   20   39 1
  37   21   22 2
  38   21   25 1
  39   22   23 1
  40   23   24 2
  41   23   26 1
  42   24   25 1
  43   24   27 1
  44   26   40 1
  45   26   41 1
  46   26   42 1
  47   27   43 1
  48   27   44 1
  49   27   45 1
  50   28   46 1
  51   28   47 1
  52   28   48 1

#	End of record

