#	Name: ASD01920001
#	Creating user name:	WinNT
#	Creation time:	15. 06. 2019 20:11

#	Modifying user name:	WinNT
#	Modification time:	15. 06. 2019 20:11

#	Program:	/corina/corina34_cracker 3.40 0067  02.08.2006

@<TRIPOS>MOLECULE
ASD01920001
  58   61    0    0    0
SMALL
NO_CHARGES


@<TRIPOS>ATOM
   1 C1            -0.0187     1.5258     0.0104 C.3     
   2 C2             0.0021    -0.0041     0.0020 C.3     
   3 N3             1.3595     2.0342     0.0000 N.3     
   4 N4            -1.3761    -0.5125     0.0124 N.3     
   5 C5            -1.3954    -1.9814     0.0047 C.3     
   6 C6            -1.2646    -2.4929     1.4162 C.ar    
   7 C7            -0.4797    -3.5997     1.6804 C.ar    
   8 C8            -0.3598    -4.0689     2.9751 C.ar    
   9 C9            -1.0245    -3.4311     4.0058 C.ar    
  10 C10           -1.8087    -2.3237     3.7418 C.ar    
  11 C11           -1.9251    -1.8519     2.4476 C.ar    
  12 C12           -2.6952    -2.4636    -0.5859 C.ar    
  13 C13           -2.7060    -3.5541    -1.4354 C.ar    
  14 C14           -3.8983    -3.9965    -1.9772 C.ar    
  15 C15           -5.0799    -3.3485    -1.6693 C.ar    
  16 C16           -5.0693    -2.2586    -0.8191 C.ar    
  17 C17           -3.8775    -1.8189    -0.2739 C.ar    
  18 C18            1.3788     3.5031     0.0077 C.3     
  19 C19            2.6786     3.9853     0.5984 C.ar    
  20 C20            2.6894     5.0758     1.4478 C.ar    
  21 C21            3.8817     5.5182     1.9896 C.ar    
  22 C22            5.0632     4.8698     1.6823 C.ar    
  23 C23            5.0523     3.7787     0.8336 C.ar    
  24 C24            3.8594     3.3337     0.2952 C.ar    
  25 C25            1.2480     4.0146    -1.4038 C.ar    
  26 C26            0.4631     5.1214    -1.6679 C.ar    
  27 C27            0.3431     5.5906    -2.9627 C.ar    
  28 C28            1.0085     4.9532    -3.9932 C.ar    
  29 C29            1.7941     3.8469    -3.7289 C.ar    
  30 C30            1.9175     3.3804    -2.4336 C.ar    
  31 H31           -0.5459     1.8868    -0.8726 H       
  32 H32           -0.5289     1.8773     0.9072 H       
  33 H33            0.5123    -0.3556    -0.8948 H       
  34 H34            0.5293    -0.3651     0.8851 H       
  35 H35            1.8883     1.6616     0.7744 H       
  36 H36           -1.8899    -0.1483     0.8007 H       
  37 H37           -0.5640    -2.3525    -0.5947 H       
  38 H38            0.0396    -4.0980     0.8752 H       
  39 H39            0.2529    -4.9341     3.1814 H       
  40 H40           -0.9314    -3.7981     5.0172 H       
  41 H41           -2.3282    -1.8256     4.5469 H       
  42 H42           -2.5348    -0.9845     2.2419 H       
  43 H43           -1.7828    -4.0604    -1.6759 H       
  44 H44           -3.9066    -4.8480    -2.6414 H       
  45 H45           -6.0114    -3.6937    -2.0932 H       
  46 H46           -5.9924    -1.7521    -0.5788 H       
  47 H47           -3.8697    -0.9696     0.3933 H       
  48 H48            0.5474     3.8742     0.6071 H       
  49 H49            1.7663     5.5825     1.6879 H       
  50 H50            3.8902     6.3707     2.6527 H       
  51 H51            5.9949     5.2158     2.1050 H       
  52 H52            5.9755     3.2723     0.5933 H       
  53 H53            3.8504     2.4790    -0.3649 H       
  54 H54           -0.0567     5.6194    -0.8628 H       
  55 H55           -0.2707     6.4549    -3.1692 H       
  56 H56            0.9142     5.3193    -5.0049 H       
  57 H57            2.3136     3.3488    -4.5341 H       
  58 H58            2.5343     2.5183    -2.2265 H       
@<TRIPOS>BOND
   1    1    2 1
   2    1    3 1
   3    1   31 1
   4    1   32 1
   5    2    4 1
   6    2   33 1
   7    2   34 1
   8    3   18 1
   9    3   35 1
  10    4    5 1
  11    4   36 1
  12    5    6 1
  13    5   12 1
  14    5   37 1
  15    6    7 ar
  16    6   11 ar
  17    7    8 ar
  18    7   38 1
  19    8    9 ar
  20    8   39 1
  21    9   10 ar
  22    9   40 1
  23   10   11 ar
  24   10   41 1
  25   11   42 1
  26   12   13 ar
  27   12   17 ar
  28   13   14 ar
  29   13   43 1
  30   14   15 ar
  31   14   44 1
  32   15   16 ar
  33   15   45 1
  34   16   17 ar
  35   16   46 1
  36   17   47 1
  37   18   19 1
  38   18   25 1
  39   18   48 1
  40   19   20 ar
  41   19   24 ar
  42   20   21 ar
  43   20   49 1
  44   21   22 ar
  45   21   50 1
  46   22   23 ar
  47   22   51 1
  48   23   24 ar
  49   23   52 1
  50   24   53 1
  51   25   26 ar
  52   25   30 ar
  53   26   27 ar
  54   26   54 1
  55   27   28 ar
  56   27   55 1
  57   28   29 ar
  58   28   56 1
  59   29   30 ar
  60   29   57 1
  61   30   58 1

#	End of record

