#	Name: ASD02620009
#	Creating user name:	WinNT
#	Creation time:	15. 06. 2019 20:26

#	Modifying user name:	WinNT
#	Modification time:	15. 06. 2019 20:26

#	Program:	/corina/corina34_cracker 3.40 0067  02.08.2006

@<TRIPOS>MOLECULE
ASD02620009
  32   34    0    0    0
SMALL
NO_CHARGES


@<TRIPOS>ATOM
   1 C1            -0.1290     1.1436     0.0567 C.2     
   2 N2             0.5129     0.8874     1.1371 N.2     
   3 C3             1.5953    -0.0701     0.8690 C.3     
   4 C4             1.4739    -0.3502    -0.6426 C.3     
   5 N5             0.3316     0.4878    -1.0456 N.pl3   
   6 O6            -1.1672     3.0151    -1.0800 O.3     
   7 C7            -1.3018     2.0887     0.0111 C.3     
   8 C8            -2.6034     1.3304    -0.3417 C.3     
   9 C9            -2.6557     1.4834    -1.8495 C.ar    
  10 C10           -1.7670     2.4966    -2.1866 C.ar    
  11 C11           -1.6105     2.8350    -3.5282 C.ar    
  12 C12           -2.3353     2.1763    -4.5001 C.ar    
  13 C13           -3.2227     1.1752    -4.1515 C.ar    
  14 C14           -3.3810     0.8301    -2.8207 C.ar    
  15 C15           -1.4471     2.8335     1.3396 C.3     
  16 C16           -0.1993     3.6838     1.5867 C.3     
  17 H17            2.5640     0.3732     1.0995 H       
  18 H18            1.4465    -0.9859     1.4411 H       
  19 H19            2.3800    -0.0436    -1.1653 H       
  20 H20            1.2614    -1.4039    -0.8234 H       
  21 H21           -0.0312     0.5601    -1.9423 H       
  22 H22           -2.5312     0.2802    -0.0590 H       
  23 H23           -3.4676     1.8003     0.1278 H       
  24 H24           -0.9197     3.6162    -3.8091 H       
  25 H25           -2.2088     2.4444    -5.5386 H       
  26 H26           -3.7907     0.6645    -4.9151 H       
  27 H27           -4.0730     0.0484    -2.5440 H       
  28 H28           -2.3246     3.4789     1.3003 H       
  29 H29           -1.5620     2.1130     2.1494 H       
  30 H30            0.6628     3.0317     1.7269 H       
  31 H31           -0.0272     4.3343     0.7292 H       
  32 H32           -0.3445     4.2911     2.4801 H       
@<TRIPOS>BOND
   1    1    2 2
   2    1    5 1
   3    1    7 1
   4    2    3 1
   5    3    4 1
   6    3   17 1
   7    3   18 1
   8    4    5 1
   9    4   19 1
  10    4   20 1
  11    5   21 1
  12    6    7 1
  13    6   10 1
  14    7    8 1
  15    7   15 1
  16    8    9 1
  17    8   22 1
  18    8   23 1
  19    9   10 ar
  20    9   14 ar
  21   10   11 ar
  22   11   12 ar
  23   11   24 1
  24   12   13 ar
  25   12   25 1
  26   13   14 ar
  27   13   26 1
  28   14   27 1
  29   15   16 1
  30   15   28 1
  31   15   29 1
  32   16   30 1
  33   16   31 1
  34   16   32 1

#	End of record

