#	Name: ASD00180003
#	Creating user name:	WinNT
#	Creation time:	15. 06. 2019 18:33

#	Modifying user name:	WinNT
#	Modification time:	15. 06. 2019 18:33

#	Program:	/corina/corina34_cracker 3.40 0067  02.08.2006

@<TRIPOS>MOLECULE
ASD00180003
  50   54    0    0    0
SMALL
NO_CHARGES


@<TRIPOS>ATOM
   1 C1            -0.0164     1.3850     0.0403 C.ar    
   2 C2             0.0010     0.0020     0.0175 C.ar    
   3 C3             1.2045    -0.6796    -0.0104 C.ar    
   4 C4             2.3954     0.0176    -0.0151 C.ar    
   5 C5             2.3841     1.4114     0.0078 C.ar    
   6 C6             1.1683     2.0928     0.0354 C.ar    
   7 C7             3.6603     2.1661     0.0034 C.ar    
   8 N8             3.6206     3.4897     0.0255 N.ar    
   9 C9             4.7425     4.1993     0.0228 C.ar    
  10 C10            5.9779     3.5284    -0.0039 C.ar    
  11 C11            5.9726     2.1218    -0.0268 C.ar    
  12 N12            4.8048     1.4913    -0.0172 N.ar    
  13 N13            5.0402     5.5391     0.0416 N.pl3   
  14 C14            6.3983     5.6556     0.0266 C.2     
  15 N15            6.9460     4.4751    -0.0001 N.2     
  16 C16            4.0756     6.6413     0.0717 C.3     
  17 C17            3.6688     6.9140     1.4969 C.ar    
  18 C18            4.3810     7.8227     2.2572 C.ar    
  19 C19            4.0079     8.0728     3.5645 C.ar    
  20 C20            2.9223     7.4146     4.1114 C.ar    
  21 C21            2.2096     6.5066     3.3509 C.ar    
  22 C22            2.5801     6.2597     2.0422 C.ar    
  23 N23            7.1604     1.4103    -0.0540 N.pl3   
  24 C24            7.1424     0.0161     0.0441 C.ar    
  25 C25            8.0797    -0.7424    -0.6455 C.ar    
  26 C26            8.0591    -2.1197    -0.5464 C.ar    
  27 C27            7.1066    -2.7438     0.2384 C.ar    
  28 C28            6.1718    -1.9917     0.9259 C.ar    
  29 C29            6.1907    -0.6137     0.8360 C.ar    
  30 N30            7.0875    -4.2203     0.3423 N.pl3   
  31 O31            7.9100    -4.8841    -0.2630 O.2     
  32 O32            6.2492    -4.7714     1.0330 O.2     
  33 H33           -0.9589     1.9120     0.0574 H       
  34 H34           -0.9286    -0.5478     0.0218 H       
  35 H35            1.2120    -1.7594    -0.0281 H       
  36 H36            3.3344    -0.5155    -0.0361 H       
  37 H37            1.1536     3.1726     0.0529 H       
  38 H38            6.9401     6.5899     0.0356 H       
  39 H39            4.5320     7.5353    -0.3533 H       
  40 H40            3.1957     6.3702    -0.5117 H       
  41 H41            5.2292     8.3369     1.8298 H       
  42 H42            4.5648     8.7822     4.1587 H       
  43 H43            2.6313     7.6095     5.1331 H       
  44 H44            1.3617     5.9921     3.7783 H       
  45 H45            2.0232     5.5503     1.4480 H       
  46 H46            8.0049     1.8795    -0.1412 H       
  47 H47            8.8236    -0.2557    -1.2588 H       
  48 H48            8.7873    -2.7101    -1.0826 H       
  49 H49            5.4291    -2.4822     1.5376 H       
  50 H50            5.4605    -0.0268     1.3735 H       
@<TRIPOS>BOND
   1    1    2 ar
   2    1    6 ar
   3    1   33 1
   4    2    3 ar
   5    2   34 1
   6    3    4 ar
   7    3   35 1
   8    4    5 ar
   9    4   36 1
  10    5    6 ar
  11    5    7 1
  12    6   37 1
  13    7    8 ar
  14    7   12 ar
  15    8    9 ar
  16    9   10 ar
  17    9   13 1
  18   10   11 ar
  19   10   15 1
  20   11   12 ar
  21   11   23 1
  22   13   14 1
  23   13   16 1
  24   14   15 2
  25   14   38 1
  26   16   17 1
  27   16   39 1
  28   16   40 1
  29   17   18 ar
  30   17   22 ar
  31   18   19 ar
  32   18   41 1
  33   19   20 ar
  34   19   42 1
  35   20   21 ar
  36   20   43 1
  37   21   22 ar
  38   21   44 1
  39   22   45 1
  40   23   24 1
  41   23   46 1
  42   24   25 ar
  43   24   29 ar
  44   25   26 ar
  45   25   47 1
  46   26   27 ar
  47   26   48 1
  48   27   28 ar
  49   27   30 1
  50   28   29 ar
  51   28   49 1
  52   29   50 1
  53   30   31 2
  54   30   32 2

#	End of record

