#	Name: ASD07300176
#	Creating user name:	WinNT
#	Creation time:	15. 06. 2019 21:09

#	Modifying user name:	WinNT
#	Modification time:	15. 06. 2019 21:09

#	Program:	/corina/corina34_cracker 3.40 0067  02.08.2006

@<TRIPOS>MOLECULE
ASD07300176
  43   47    0    0    0
SMALL
NO_CHARGES


@<TRIPOS>ATOM
   1 C1            -0.8589     0.9877    -0.1282 C.ar    
   2 C2            -1.0213    -0.3800    -0.3503 C.ar    
   3 C3             0.0687    -1.2313    -0.1895 C.ar    
   4 C4             1.2871    -0.6735     0.1902 C.ar    
   5 C5             1.3714     0.6896     0.3921 C.ar    
   6 N6             0.3205     1.4712     0.2320 N.ar    
   7 C7            -2.9737     0.6163    -0.6990 C.2     
   8 N8            -2.0972     1.5780    -0.3549 N.am    
   9 N9            -2.3530    -0.5789    -0.7101 N.am    
  10 O10           -4.1472     0.7994    -0.9640 O.2     
  11 O11           -0.0528    -2.5681    -0.3968 O.3     
  12 C12            1.1195    -3.3631    -0.2080 C.3     
  13 C13           -2.3848     2.9464    -0.2433 C.ar    
  14 C14           -3.6687     3.4092    -0.4983 C.ar    
  15 C15           -3.9515     4.7561    -0.3878 C.ar    
  16 C16           -2.9527     5.6472    -0.0225 C.ar    
  17 C17           -1.6695     5.1852     0.2325 C.ar    
  18 C18           -1.3872     3.8377     0.1278 C.ar    
  19 O19           -3.2314     6.9736     0.0853 O.3     
  20 C20           -3.9073     7.3936     1.1793 C.2     
  21 N21           -4.2353     6.6381     2.1950 N.2     
  22 C22           -4.9052     7.3784     3.1169 C.ar    
  23 C23           -4.9870     8.6877     2.6140 C.ar    
  24 N24           -4.3424     8.6695     1.3889 N.pl3   
  25 C25           -5.4706     7.0826     4.3594 C.ar    
  26 C26           -6.1008     8.0743     5.0775 C.ar    
  27 C27           -6.1790     9.3650     4.5762 C.ar    
  28 C28           -5.6253     9.6736     3.3507 C.ar    
  29 H29            2.1561    -1.3004     0.3256 H       
  30 H30            2.3151     1.1243     0.6866 H       
  31 H31           -2.7628    -1.4310    -0.9262 H       
  32 H32            0.8848    -4.4091    -0.4051 H       
  33 H33            1.8987    -3.0301    -0.8936 H       
  34 H34            1.4693    -3.2565     0.8189 H       
  35 H35           -4.4460     2.7157    -0.7833 H       
  36 H36           -4.9502     5.1162    -0.5861 H       
  37 H37           -0.8923     5.8793     0.5165 H       
  38 H38           -0.3893     3.4776     0.3306 H       
  39 H39           -4.2238     9.4233     0.7901 H       
  40 H40           -5.4139     6.0794     4.7555 H       
  41 H41           -6.5377     7.8451     6.0382 H       
  42 H42           -6.6766    10.1336     5.1489 H       
  43 H43           -5.6890    10.6808     2.9662 H       
@<TRIPOS>BOND
   1    1    2 ar
   2    1    6 ar
   3    1    8 1
   4    2    3 ar
   5    2    9 1
   6    3    4 ar
   7    3   11 1
   8    4    5 ar
   9    4   29 1
  10    5    6 ar
  11    5   30 1
  12    7    8 am
  13    7    9 am
  14    7   10 2
  15    8   13 1
  16    9   31 1
  17   11   12 1
  18   12   32 1
  19   12   33 1
  20   12   34 1
  21   13   14 ar
  22   13   18 ar
  23   14   15 ar
  24   14   35 1
  25   15   16 ar
  26   15   36 1
  27   16   17 ar
  28   16   19 1
  29   17   18 ar
  30   17   37 1
  31   18   38 1
  32   19   20 1
  33   20   21 2
  34   20   24 1
  35   21   22 1
  36   22   23 ar
  37   22   25 ar
  38   23   24 1
  39   23   28 ar
  40   24   39 1
  41   25   26 ar
  42   25   40 1
  43   26   27 ar
  44   26   41 1
  45   27   28 ar
  46   27   42 1
  47   28   43 1

#	End of record

