#	Name: ASD07300860
#	Creating user name:	WinNT
#	Creation time:	15. 06. 2019 21:10

#	Modifying user name:	WinNT
#	Modification time:	15. 06. 2019 21:10

#	Program:	/corina/corina34_cracker 3.40 0067  02.08.2006

@<TRIPOS>MOLECULE
ASD07300860
  46   49    0    0    0
SMALL
NO_CHARGES


@<TRIPOS>ATOM
   1 N1            -0.0163     1.3527     0.0095 N.am    
   2 C2             0.0021    -0.0041     0.0020 C.2     
   3 N3             1.1018    -0.6986    -0.0118 N.2     
   4 C4             2.3098    -0.1133    -0.0201 C.2     
   5 C5             2.3914     1.2881    -0.0138 C.2     
   6 C6             1.1433     2.0510     0.0022 C.2     
   7 N7             3.5868    -0.5761    -0.0344 N.pl3   
   8 N8             4.4535     0.5241    -0.0369 N.2     
   9 C9             3.7572     1.6272    -0.0249 C.2     
  10 O10            1.1474     3.2693     0.0079 O.2     
  11 C11            3.9887    -1.9848    -0.0448 C.3     
  12 C12            4.8103    -2.2715    -1.3033 C.3     
  13 C13            5.2300    -3.7427    -1.3141 C.3     
  14 C14            6.0753    -4.0411    -0.0742 C.3     
  15 C15            5.2537    -3.7545     1.1842 C.3     
  16 C16            4.8339    -2.2832     1.1951 C.3     
  17 C17           -1.3127    -0.7405     0.0106 C.3     
  18 C18           -1.2319    -2.1525    -0.5933 C.3     
  19 C19           -2.1705    -2.6047     0.5378 C.3     
  20 C20           -1.6303    -1.4185     1.3539 C.3     
  21 C21           -1.8456    -2.2582    -1.9656 C.2     
  22 O22           -2.3398    -1.2804    -2.4858 O.2     
  23 N23           -1.8452    -3.4393    -2.6148 N.am    
  24 N24           -2.4015    -3.5351    -3.8587 N.3     
  25 F25            6.4591    -5.3864    -0.0842 F       
  26 F26            7.2157    -3.2308    -0.0812 F       
  27 H27           -0.8640     1.8242     0.0160 H       
  28 H28            4.1599     2.6293    -0.0236 H       
  29 H29            3.1001    -2.6162    -0.0394 H       
  30 H30            4.2081    -2.0589    -2.1866 H       
  31 H31            5.6988    -1.6401    -1.3087 H       
  32 H32            4.3415    -4.3741    -1.3087 H       
  33 H33            5.8153    -3.9469    -2.2107 H       
  34 H34            4.3651    -4.3858     1.1896 H       
  35 H35            5.8559    -3.9671     2.0675 H       
  36 H36            5.7225    -1.6519     1.1896 H       
  37 H37            4.2486    -2.0790     2.0916 H       
  38 H38           -2.1349    -0.1434    -0.3838 H       
  39 H39           -0.2371    -2.5946    -0.5382 H       
  40 H40           -3.2280    -2.5177     0.2886 H       
  41 H41           -1.9120    -3.5770     0.9572 H       
  42 H42           -0.7444    -1.6599     1.9413 H       
  43 H43           -2.3958    -0.9024     1.9332 H       
  44 H44           -1.4499    -4.2213    -2.1987 H       
  45 H45           -1.9831    -2.8722    -4.4940 H       
  46 H46           -2.3270    -4.4755    -4.2167 H       
@<TRIPOS>BOND
   1    1    2 1
   2    1    6 am
   3    1   27 1
   4    2    3 2
   5    2   17 1
   6    3    4 1
   7    4    5 2
   8    4    7 1
   9    5    6 1
  10    5    9 1
  11    6   10 2
  12    7    8 1
  13    7   11 1
  14    8    9 2
  15    9   28 1
  16   11   12 1
  17   11   16 1
  18   11   29 1
  19   12   13 1
  20   12   30 1
  21   12   31 1
  22   13   14 1
  23   13   32 1
  24   13   33 1
  25   14   15 1
  26   14   25 1
  27   14   26 1
  28   15   16 1
  29   15   34 1
  30   15   35 1
  31   16   36 1
  32   16   37 1
  33   17   18 1
  34   17   20 1
  35   17   38 1
  36   18   19 1
  37   18   21 1
  38   18   39 1
  39   19   20 1
  40   19   40 1
  41   19   41 1
  42   20   42 1
  43   20   43 1
  44   21   22 2
  45   21   23 am
  46   23   24 1
  47   23   44 1
  48   24   45 1
  49   24   46 1

#	End of record

