#	Name: ASD01148758
#	Creating user name:	WinNT
#	Creation time:	15. 06. 2019 19:03

#	Modifying user name:	WinNT
#	Modification time:	15. 06. 2019 19:03

#	Program:	/corina/corina34_cracker 3.40 0067  02.08.2006

@<TRIPOS>MOLECULE
ASD01148758
  58   60    0    0    0
SMALL
NO_CHARGES


@<TRIPOS>ATOM
   1 N1            -0.1458     0.8873     0.4829 N.pl3   
   2 C2             0.0912    -0.4018     0.1368 C.2     
   3 C3             1.4536    -0.6098     0.1616 C.2     
   4 C4             2.0547     0.6182     0.5418 C.2     
   5 C5             1.0528     1.5142     0.7313 C.2     
   6 C6             2.1533    -1.8685    -0.1478 C.2     
   7 O7             1.8933    -2.4732    -1.1706 O.2     
   8 N8             3.0815    -2.3502     0.7024 N.am    
   9 C9             3.8593    -3.5380     0.3414 C.3     
  10 C10            5.1287    -3.1111    -0.3983 C.3     
  11 C11            5.9409    -4.3516    -0.7753 C.3     
  12 C12            3.3127    -1.6859     1.9875 C.3     
  13 C13            2.4088    -2.3086     3.0534 C.3     
  14 O14            2.7847    -3.6718     3.2594 O.3     
  15 C15           -1.4094     1.4867     0.5681 C.ar    
  16 C16           -2.3063     1.0828     1.5480 C.ar    
  17 C17           -3.5512     1.6755     1.6293 C.ar    
  18 C18           -3.9047     2.6699     0.7359 C.ar    
  19 C19           -3.0136     3.0743    -0.2411 C.ar    
  20 C20           -1.7650     2.4897    -0.3237 C.ar    
  21 S21           -5.4942     3.4229     0.8422 S.o2    
  22 O22           -5.7765     3.9480    -0.4477 O.2     
  23 O23           -6.3373     2.4889     1.5027 O.2     
  24 N24           -5.3533     4.7244     1.8564 N.am    
  25 C25           -0.9538    -1.4294    -0.2143 C.3     
  26 C26            1.2216     2.9266     1.1362 C.ar    
  27 C27            0.1532     3.6266     1.6983 C.ar    
  28 C28            0.3168     4.9437     2.0744 C.ar    
  29 C29            1.5380     5.5713     1.8949 C.ar    
  30 C30            2.6015     4.8819     1.3374 C.ar    
  31 C31            2.4516     3.5626     0.9631 C.ar    
  32 Cl32           1.7362     7.2291     2.3703 Cl      
  33 H33            3.1120     0.8049     0.6590 H       
  34 H34            4.1314    -4.0827     1.2455 H       
  35 H35            3.2615    -4.1814    -0.3042 H       
  36 H36            4.8565    -2.5664    -1.3024 H       
  37 H37            5.7264    -2.4677     0.2473 H       
  38 H38            5.3432    -4.9950    -1.4210 H       
  39 H39            6.8453    -4.0474    -1.3023 H       
  40 H40            6.2131    -4.8963     0.1288 H       
  41 H41            4.3559    -1.8099     2.2781 H       
  42 H42            3.0854    -0.6240     1.8937 H       
  43 H43            2.5154    -1.7572     3.9875 H       
  44 H44            1.3715    -2.2640     2.7214 H       
  45 H45            2.2525    -4.1305     3.9239 H       
  46 H46           -2.0310     0.3057     2.2456 H       
  47 H47           -4.2493     1.3618     2.3913 H       
  48 H48           -3.2927     3.8512    -0.9375 H       
  49 H49           -1.0677     2.8094    -1.0839 H       
  50 H50           -4.4965     4.9343     2.2598 H       
  51 H51           -6.1275     5.2768     2.0470 H       
  52 H52           -1.1455    -1.4008    -1.2870 H       
  53 H53           -0.5967    -2.4207     0.0646 H       
  54 H54           -1.8750    -1.2099     0.3254 H       
  55 H55           -0.7999     3.1384     1.8381 H       
  56 H56           -0.5093     5.4865     2.5095 H       
  57 H57            3.5515     5.3767     1.1991 H       
  58 H58            3.2833     3.0244     0.5328 H       
@<TRIPOS>BOND
   1    1    2 1
   2    1    5 1
   3    1   15 1
   4    2    3 2
   5    2   25 1
   6    3    4 1
   7    3    6 1
   8    4    5 2
   9    4   33 1
  10    5   26 1
  11    6    7 2
  12    6    8 am
  13    8    9 1
  14    8   12 1
  15    9   10 1
  16    9   34 1
  17    9   35 1
  18   10   11 1
  19   10   36 1
  20   10   37 1
  21   11   38 1
  22   11   39 1
  23   11   40 1
  24   12   13 1
  25   12   41 1
  26   12   42 1
  27   13   14 1
  28   13   43 1
  29   13   44 1
  30   14   45 1
  31   15   16 ar
  32   15   20 ar
  33   16   17 ar
  34   16   46 1
  35   17   18 ar
  36   17   47 1
  37   18   19 ar
  38   18   21 1
  39   19   20 ar
  40   19   48 1
  41   20   49 1
  42   21   22 2
  43   21   23 2
  44   21   24 am
  45   24   50 1
  46   24   51 1
  47   25   52 1
  48   25   53 1
  49   25   54 1
  50   26   27 ar
  51   26   31 ar
  52   27   28 ar
  53   27   55 1
  54   28   29 ar
  55   28   56 1
  56   29   30 ar
  57   29   32 1
  58   30   31 ar
  59   30   57 1
  60   31   58 1

#	End of record

