#	Name: ASD01910456
#	Creating user name:	WinNT
#	Creation time:	15. 06. 2019 19:55

#	Modifying user name:	WinNT
#	Modification time:	15. 06. 2019 19:55

#	Program:	/corina/corina34_cracker 3.40 0067  02.08.2006

@<TRIPOS>MOLECULE
ASD01910456
  46   49    0    0    0
SMALL
NO_CHARGES


@<TRIPOS>ATOM
   1 C1            -0.0180     0.3715     1.1065 C.ar    
   2 C2             0.0495    -0.8777     1.7050 C.ar    
   3 C3             1.2865    -1.4535     1.9349 C.ar    
   4 N4             2.3957    -0.8313     1.5937 N.ar    
   5 C5             2.3742     0.3641     1.0193 C.ar    
   6 C6             1.1649     1.0022     0.7579 C.ar    
   7 C7             3.6509     1.0276     0.6524 C.2     
   8 N8             4.8953     0.5346     0.8433 N.2     
   9 C9             5.7105     1.4457     0.3736 C.2     
  10 O10            4.9564     2.4508    -0.0824 O.3     
  11 N11            3.7818     2.1952     0.0794 N.2     
  12 C12            7.2157     1.3747     0.3521 C.3     
  13 C13            7.7103     1.4570    -1.0938 C.3     
  14 C14            9.2369     1.3520    -1.1193 C.3     
  15 C15            9.8384     2.5225    -0.3351 C.3     
  16 N16            9.2569     2.5363     1.0141 N.am    
  17 C17            7.7943     2.5455     1.1529 C.3     
  18 C18           10.0502     2.5406     2.1037 C.2     
  19 C19           11.5164     2.4468     1.9503 C.ar    
  20 O20            9.5590     2.6216     3.2128 O.2     
  21 C21           12.1848     3.3001     1.0697 C.ar    
  22 C22           13.5531     3.2086     0.9307 C.ar    
  23 C23           14.2658     2.2716     1.6633 C.ar    
  24 C24           13.6071     1.4216     2.5386 C.ar    
  25 C25           12.2397     1.5084     2.6895 C.ar    
  26 F26           15.6068     2.1861     1.5233 F       
  27 C27            1.3654    -2.8108     2.5850 C.3     
  28 H28           -0.9716     0.8400     0.9124 H       
  29 H29           -0.8544    -1.3959     1.9892 H       
  30 H30            1.1492     1.9754     0.2898 H       
  31 H31            7.5419     0.4338     0.7952 H       
  32 H32            7.2804     0.6390    -1.6718 H       
  33 H33            7.4045     2.4086    -1.5286 H       
  34 H34            9.5445     0.4115    -0.6622 H       
  35 H35            9.5868     1.3872    -2.1510 H       
  36 H36           10.9192     2.3990    -0.2660 H       
  37 H37            9.6073     3.4592    -0.8423 H       
  38 H38            7.3965     3.4841     0.7671 H       
  39 H39            7.5263     2.4371     2.2039 H       
  40 H40           11.6306     4.0301     0.4984 H       
  41 H41           14.0710     3.8678     0.2498 H       
  42 H42           14.1669     0.6933     3.1065 H       
  43 H43           11.7276     0.8462     3.3718 H       
  44 H44            1.3491    -3.5834     1.8163 H       
  45 H45            2.2903    -2.8866     3.1568 H       
  46 H46            0.5138    -2.9441     3.2522 H       
@<TRIPOS>BOND
   1    1    2 ar
   2    1    6 ar
   3    1   28 1
   4    2    3 ar
   5    2   29 1
   6    3    4 ar
   7    3   27 1
   8    4    5 ar
   9    5    6 ar
  10    5    7 1
  11    6   30 1
  12    7    8 1
  13    7   11 2
  14    8    9 2
  15    9   10 1
  16    9   12 1
  17   10   11 1
  18   12   13 1
  19   12   17 1
  20   12   31 1
  21   13   14 1
  22   13   32 1
  23   13   33 1
  24   14   15 1
  25   14   34 1
  26   14   35 1
  27   15   16 1
  28   15   36 1
  29   15   37 1
  30   16   17 1
  31   16   18 am
  32   17   38 1
  33   17   39 1
  34   18   19 1
  35   18   20 2
  36   19   21 ar
  37   19   25 ar
  38   21   22 ar
  39   21   40 1
  40   22   23 ar
  41   22   41 1
  42   23   24 ar
  43   23   26 1
  44   24   25 ar
  45   24   42 1
  46   25   43 1
  47   27   44 1
  48   27   45 1
  49   27   46 1

#	End of record

