#	Name: ASD03430582
#	Creating user name:	WinNT
#	Creation time:	15. 06. 2019 20:41

#	Modifying user name:	WinNT
#	Modification time:	15. 06. 2019 20:41

#	Program:	/corina/corina34_cracker 3.40 0067  02.08.2006

@<TRIPOS>MOLECULE
ASD03430582
  19   19    0    0    0
SMALL
NO_CHARGES


@<TRIPOS>ATOM
   1 C1            -0.0168     1.3853     0.0097 C.ar    
   2 C2             0.0021    -0.0041     0.0020 C.ar    
   3 C3             1.2133    -0.6781    -0.0132 C.ar    
   4 C4             2.3988     0.0325    -0.0207 C.ar    
   5 C5             2.3786     1.4145    -0.0131 C.ar    
   6 C6             1.1725     2.0910     0.0021 C.ar    
   7 O7            -1.1652    -0.7011     0.0099 O.3     
   8 C8            -1.0695    -2.1268     0.0013 C.3     
   9 F9            -1.1953     2.0458     0.0188 F       
  10 C10            3.7154    -0.7007    -0.0367 C.3     
  11 Cl11           4.2245    -0.9845    -1.7429 Cl      
  12 H12            1.2306    -1.7580    -0.0188 H       
  13 H13            3.3065     1.9671    -0.0186 H       
  14 H14            1.1594     3.1709     0.0080 H       
  15 H15           -2.0705    -2.5582     0.0089 H       
  16 H16           -0.5414    -2.4501    -0.8957 H       
  17 H17           -0.5237    -2.4597     0.8841 H       
  18 H18            4.4706    -0.1025     0.4731 H       
  19 H19            3.6046    -1.6576     0.4734 H       
@<TRIPOS>BOND
   1    1    2 ar
   2    1    6 ar
   3    1    9 1
   4    2    3 ar
   5    2    7 1
   6    3    4 ar
   7    3   12 1
   8    4    5 ar
   9    4   10 1
  10    5    6 ar
  11    5   13 1
  12    6   14 1
  13    7    8 1
  14    8   15 1
  15    8   16 1
  16    8   17 1
  17   10   11 1
  18   10   18 1
  19   10   19 1

#	End of record

