#	Name: ASD01913041
#	Creating user name:	WinNT
#	Creation time:	15. 06. 2019 20:00

#	Modifying user name:	WinNT
#	Modification time:	15. 06. 2019 20:00

#	Program:	/corina/corina34_cracker 3.40 0067  02.08.2006

@<TRIPOS>MOLECULE
ASD01913041
  39   40    0    0    0
SMALL
NO_CHARGES


@<TRIPOS>ATOM
   1 C1            -0.1877     1.4394     0.2674 C.ar    
   2 C2            -0.2275     0.0102     0.3477 C.1     
   3 C3            -0.2601    -1.1615     0.4135 C.1     
   4 C4            -0.2999    -2.5907     0.4938 C.ar    
   5 C5            -1.3807     2.1678     0.2935 C.ar    
   6 C6            -1.5257    -3.2546     0.5920 C.ar    
   7 C7            -1.5561    -4.6313     0.6690 C.ar    
   8 C8            -0.3768    -5.3550     0.6492 C.ar    
   9 C9             0.8407    -4.7045     0.5522 C.ar    
  10 C10            0.8866    -3.3287     0.4686 C.ar    
  11 N11            0.9838     2.0614     0.1742 N.ar    
  12 C12            1.0653     3.3729     0.0982 C.ar    
  13 C13           -0.0804     4.1598     0.1129 C.ar    
  14 C14           -1.3287     3.5459     0.2153 C.ar    
  15 O15           -1.8041     5.6792    -1.2277 O.2     
  16 C16           -0.9248     6.2572    -0.6245 C.2     
  17 N17            0.0177     5.5522     0.0322 N.am    
  18 C18           -2.0591     8.3122    -1.4243 C.3     
  19 C19           -0.8860     7.7636    -0.6094 C.3     
  20 C20           -0.9900     8.2620     0.8334 C.3     
  21 C21            0.4303     8.2461    -1.2221 C.3     
  22 H22           -2.3304     1.6597     0.3733 H       
  23 H23           -2.4469    -2.6910     0.6079 H       
  24 H24           -2.5027    -5.1457     0.7453 H       
  25 H25           -0.4068    -6.4329     0.7102 H       
  26 H26            1.7570    -5.2760     0.5373 H       
  27 H27            1.8375    -2.8223     0.3925 H       
  28 H28            2.0345     3.8435     0.0239 H       
  29 H29           -2.2342     4.1344     0.2285 H       
  30 H30            0.7640     6.0108     0.4487 H       
  31 H31           -2.9969     7.9685    -0.9878 H       
  32 H32           -2.0310     9.4018    -1.4133 H       
  33 H33           -1.9850     7.9571    -2.4521 H       
  34 H34           -1.9278     7.9183     1.2698 H       
  35 H35           -0.1543     7.8712     1.4139 H       
  36 H36           -0.9619     9.3516     0.8443 H       
  37 H37            0.4584     9.3357    -1.2111 H       
  38 H38            1.2660     7.8553    -0.6416 H       
  39 H39            0.5044     7.8910    -2.2499 H       
@<TRIPOS>BOND
   1    1    2 1
   2    1   11 ar
   3    1    5 ar
   4    2    3 3
   5    3    4 1
   6    4    6 ar
   7    4   10 ar
   8    5   14 ar
   9    5   22 1
  10    6    7 ar
  11    6   23 1
  12    7    8 ar
  13    7   24 1
  14    8    9 ar
  15    8   25 1
  16    9   10 ar
  17    9   26 1
  18   10   27 1
  19   11   12 ar
  20   12   13 ar
  21   12   28 1
  22   13   14 ar
  23   13   17 1
  24   14   29 1
  25   15   16 2
  26   16   17 am
  27   16   19 1
  28   17   30 1
  29   18   19 1
  30   18   31 1
  31   18   32 1
  32   18   33 1
  33   19   20 1
  34   19   21 1
  35   20   34 1
  36   20   35 1
  37   20   36 1
  38   21   37 1
  39   21   38 1
  40   21   39 1

#	End of record

