#	Name: ASD06390004
#	Creating user name:	WinNT
#	Creation time:	15. 06. 2019 21:06

#	Modifying user name:	WinNT
#	Modification time:	15. 06. 2019 21:06

#	Program:	/corina/corina34_cracker 3.40 0067  02.08.2006

@<TRIPOS>MOLECULE
ASD06390004
  44   45    0    0    0
SMALL
NO_CHARGES


@<TRIPOS>ATOM
   1 S1            -0.0225     1.8097     0.0120 S.3     
   2 C2             0.0021    -0.0041     0.0020 C.3     
   3 C3            -1.4333    -0.5336     0.0129 C.3     
   4 N4            -1.4134    -1.9985     0.0048 N.am    
   5 C5            -2.5713    -2.6882     0.0122 C.2     
   6 O6            -3.6297    -2.0961     0.0255 O.2     
   7 C7            -2.5509    -4.1950     0.0039 C.3     
   8 C8            -3.9868    -4.7245     0.0148 C.3     
   9 C9            -3.9619    -6.2560     0.0412 C.3     
  10 N10           -3.1505    -6.7353    -1.0860 N.am    
  11 C11           -1.7837    -6.2194    -1.2424 C.3     
  12 C12           -1.8330    -4.6883    -1.2545 C.3     
  13 C13           -3.6503    -7.6316    -1.9597 C.2     
  14 O14           -4.7799    -8.0502    -1.8194 O.2     
  15 C15           -2.8056    -8.1136    -3.1108 C.3     
  16 O16           -3.5515    -9.0517    -3.8890 O.3     
  17 C17           -2.9300    -9.5867    -4.9732 C.ar    
  18 C18           -1.6298    -9.2162    -5.2812 C.ar    
  19 C19           -0.9993    -9.7613    -6.3835 C.ar    
  20 C20           -1.6641   -10.6763    -7.1800 C.ar    
  21 C21           -2.9620   -11.0476    -6.8753 C.ar    
  22 C22           -3.5942   -10.5091    -5.7705 C.ar    
  23 Cl23          -5.2221   -10.9753    -5.3880 Cl      
  24 Cl24          -0.8694   -11.3594    -8.5640 Cl      
  25 H25            1.2837     2.1301     0.0012 H       
  26 H26            0.5123    -0.3556    -0.8948 H       
  27 H27            0.5293    -0.3651     0.8851 H       
  28 H28           -1.9435    -0.1821     0.9097 H       
  29 H29           -1.9605    -0.1726    -0.8702 H       
  30 H30           -0.5669    -2.4720    -0.0058 H       
  31 H31           -2.0241    -4.5559     0.8873 H       
  32 H32           -4.5046    -4.3537     0.8993 H       
  33 H33           -4.5067    -4.3845    -0.8809 H       
  34 H34           -3.5234    -6.5981     0.9787 H       
  35 H35           -4.9780    -6.6396    -0.0507 H       
  36 H36           -1.1676    -6.5585    -0.4096 H       
  37 H37           -1.3627    -6.5788    -2.1813 H       
  38 H38           -2.3732    -4.3487    -2.1382 H       
  39 H39           -0.8179    -4.2917    -1.2733 H       
  40 H40           -2.5246    -7.2656    -3.7353 H       
  41 H41           -1.9066    -8.5947    -2.7254 H       
  42 H42           -1.1102    -8.5016    -4.6600 H       
  43 H43            0.0133    -9.4725    -6.6235 H       
  44 H44           -3.4796   -11.7616    -7.4988 H       
@<TRIPOS>BOND
   1    1    2 1
   2    1   25 1
   3    2    3 1
   4    2   26 1
   5    2   27 1
   6    3    4 1
   7    3   28 1
   8    3   29 1
   9    4    5 am
  10    4   30 1
  11    5    6 2
  12    5    7 1
  13    7    8 1
  14    7   12 1
  15    7   31 1
  16    8    9 1
  17    8   32 1
  18    8   33 1
  19    9   10 1
  20    9   34 1
  21    9   35 1
  22   10   11 1
  23   10   13 am
  24   11   12 1
  25   11   36 1
  26   11   37 1
  27   12   38 1
  28   12   39 1
  29   13   14 2
  30   13   15 1
  31   15   16 1
  32   15   40 1
  33   15   41 1
  34   16   17 1
  35   17   18 ar
  36   17   22 ar
  37   18   19 ar
  38   18   42 1
  39   19   20 ar
  40   19   43 1
  41   20   21 ar
  42   20   24 1
  43   21   22 ar
  44   21   44 1
  45   22   23 1

#	End of record

