#	Name: ASD01910440
#	Creating user name:	WinNT
#	Creation time:	15. 06. 2019 19:55

#	Modifying user name:	WinNT
#	Modification time:	15. 06. 2019 19:55

#	Program:	/corina/corina34_cracker 3.40 0067  02.08.2006

@<TRIPOS>MOLECULE
ASD01910440
  51   54    0    0    0
SMALL
NO_CHARGES


@<TRIPOS>ATOM
   1 C1             0.2874     1.1418     0.3140 C.ar    
   2 C2             0.3277    -0.2413     0.2391 C.ar    
   3 C3             1.5401    -0.8962     0.0932 C.ar    
   4 C4             2.7128    -0.1731     0.0224 C.ar    
   5 C5             2.6769     1.2180     0.0972 C.ar    
   6 C6             1.4554     1.8726     0.2435 C.ar    
   7 F7            -0.8183    -0.9533     0.3090 F       
   8 C8             3.9357     1.9999     0.0220 C.2     
   9 N9             4.0493     3.3461     0.0808 N.2     
  10 C10            5.3308     3.5959    -0.0231 C.2     
  11 O11            5.9531     2.4187    -0.1403 O.3     
  12 N12            5.1437     1.5159    -0.1080 N.2     
  13 C13            5.9815     4.9551    -0.0130 C.3     
  14 C14            6.9625     5.0431     1.1583 C.3     
  15 C15            7.5995     6.4343     1.1890 C.3     
  16 C16            8.3767     6.6645    -0.1109 C.3     
  17 N17            7.4738     6.4392    -1.2479 N.am    
  18 C18            6.7403     5.1685    -1.3266 C.3     
  19 C19            7.3213     7.3802    -2.2006 C.2     
  20 C20            7.9880     8.6857    -2.0595 C.2     
  21 O21            6.6330     7.1512    -3.1769 O.2     
  22 C22            9.3982     8.9248    -1.7339 C.2     
  23 C23            9.5600    10.2597    -1.7115 C.2     
  24 N24            8.3651    10.8537    -1.9965 N.pl3   
  25 C25            7.4189     9.9200    -2.2114 C.2     
  26 C26           10.8500    10.9816    -1.4186 C.3     
  27 C27            8.1444    12.3004    -2.0639 C.3     
  28 C28            5.9760    10.1895    -2.5529 C.3     
  29 H29           -0.6600     1.6485     0.4232 H       
  30 H30            1.5670    -1.9743     0.0353 H       
  31 H31            3.6574    -0.6843    -0.0906 H       
  32 H32            1.4231     2.9506     0.3015 H       
  33 H33            5.2163     5.7240     0.0947 H       
  34 H34            6.4293     4.8672     2.0926 H       
  35 H35            7.7410     4.2899     1.0373 H       
  36 H36            6.8195     7.1896     1.2851 H       
  37 H37            8.2805     6.5040     2.0372 H       
  38 H38            8.7492     7.6885    -0.1375 H       
  39 H39            9.2131     5.9676    -0.1649 H       
  40 H40            7.4433     4.3497    -1.4796 H       
  41 H41            6.0332     5.2055    -2.1552 H       
  42 H42           10.1557     8.1776    -1.5491 H       
  43 H43           11.3945    11.1445    -2.3487 H       
  44 H44           10.6311    11.9423    -0.9527 H       
  45 H45           11.4576    10.3800    -0.7426 H       
  46 H46            8.3224    12.6480    -3.0815 H       
  47 H47            7.1168    12.5248    -1.7778 H       
  48 H48            8.8296    12.8046    -1.3826 H       
  49 H49            5.8634    10.2464    -3.6356 H       
  50 H50            5.3540     9.3829    -2.1648 H       
  51 H51            5.6670    11.1341    -2.1053 H       
@<TRIPOS>BOND
   1    1    2 ar
   2    1    6 ar
   3    1   29 1
   4    2    3 ar
   5    2    7 1
   6    3    4 ar
   7    3   30 1
   8    4    5 ar
   9    4   31 1
  10    5    6 ar
  11    5    8 1
  12    6   32 1
  13    8    9 1
  14    8   12 2
  15    9   10 2
  16   10   11 1
  17   10   13 1
  18   11   12 1
  19   13   14 1
  20   13   18 1
  21   13   33 1
  22   14   15 1
  23   14   34 1
  24   14   35 1
  25   15   16 1
  26   15   36 1
  27   15   37 1
  28   16   17 1
  29   16   38 1
  30   16   39 1
  31   17   18 1
  32   17   19 am
  33   18   40 1
  34   18   41 1
  35   19   20 1
  36   19   21 2
  37   20   22 1
  38   20   25 2
  39   22   23 2
  40   22   42 1
  41   23   24 1
  42   23   26 1
  43   24   25 1
  44   24   27 1
  45   25   28 1
  46   26   43 1
  47   26   44 1
  48   26   45 1
  49   27   46 1
  50   27   47 1
  51   27   48 1
  52   28   49 1
  53   28   50 1
  54   28   51 1

#	End of record

