#	Name: ASD03430121
#	Creating user name:	WinNT
#	Creation time:	15. 06. 2019 20:40

#	Modifying user name:	WinNT
#	Modification time:	15. 06. 2019 20:40

#	Program:	/corina/corina34_cracker 3.40 0067  02.08.2006

@<TRIPOS>MOLECULE
ASD03430121
  49   54    0    0    0
SMALL
NO_CHARGES


@<TRIPOS>ATOM
   1 C1             0.4694     1.1179    -0.6110 C.ar    
   2 C2             0.4362    -0.2591    -0.4688 C.ar    
   3 C3             1.6035    -0.9631    -0.2585 C.ar    
   4 C4             2.8251    -0.3016    -0.1744 C.ar    
   5 C5             2.8559     1.0818    -0.3214 C.ar    
   6 C6             1.6876     1.7896    -0.5393 C.ar    
   7 O7             3.8444    -1.1756     0.0648 O.3     
   8 C8             1.8978    -2.4301    -0.0948 C.3     
   9 C9             3.4192    -2.5074    -0.2825 C.3     
  10 C10            0.5847    -3.9919     0.9788 C.ar    
  11 C11            1.4717    -2.9541     1.2441 C.ar    
  12 C12            1.1682    -3.2721    -1.1019 C.2     
  13 N13            0.4279    -4.1532    -0.4002 N.am    
  14 O14            1.2325    -3.1778    -2.3094 O.2     
  15 C15            1.7834    -2.6109     2.5521 C.ar    
  16 C16            1.2034    -3.3114     3.6099 C.ar    
  17 C17            0.3225    -4.3412     3.3471 C.ar    
  18 C18            0.0124    -4.6817     2.0458 C.ar    
  19 C19            2.7306    -1.5020     2.8247 C.ar    
  20 C20            3.9102    -1.7364     3.5401 C.ar    
  21 C21            4.7616    -0.6735     3.7692 C.ar    
  22 C22            4.4215     0.5864     3.2850 C.ar    
  23 N23            3.2966     0.7742     2.6111 N.ar    
  24 C24            2.4608    -0.2152     2.3673 C.ar    
  25 N25            5.2724     1.6608     3.5117 N.pl3   
  26 C26            6.5686     1.4447     4.1594 C.3     
  27 C27            4.8737     3.0100     3.1031 C.3     
  28 O28           -0.5217     2.0314    -0.8300 O.3     
  29 C29            0.0484     3.3073    -0.4832 C.3     
  30 O30            1.4590     3.1246    -0.7141 O.3     
  31 H31           -0.5065    -0.7833    -0.5223 H       
  32 H32            3.7983     1.6064    -0.2648 H       
  33 H33            3.6703    -2.7362    -1.3182 H       
  34 H34            3.8559    -3.2420     0.3941 H       
  35 H35           -0.1468    -4.8213    -0.8054 H       
  36 H36            1.4427    -3.0494     4.6300 H       
  37 H37           -0.1275    -4.8839     4.1653 H       
  38 H38           -0.6790    -5.4887     1.8531 H       
  39 H39            4.1488    -2.7246     3.9045 H       
  40 H40            5.6805    -0.8181     4.3180 H       
  41 H41            1.5530    -0.0239     1.8145 H       
  42 H42            7.3244     1.2410     3.4007 H       
  43 H43            6.8478     2.3366     4.7202 H       
  44 H44            6.4980     0.5954     4.8390 H       
  45 H45            3.8864     2.9733     2.6427 H       
  46 H46            4.8429     3.6602     3.9775 H       
  47 H47            5.5951     3.4004     2.3853 H       
  48 H48           -0.3452     4.0912    -1.1303 H       
  49 H49           -0.1442     3.5410     0.5638 H       
@<TRIPOS>BOND
   1    1    2 ar
   2    1    6 ar
   3    1   28 1
   4    2    3 ar
   5    2   31 1
   6    3    4 ar
   7    3    8 1
   8    4    5 ar
   9    4    7 1
  10    5    6 ar
  11    5   32 1
  12    6   30 1
  13    7    9 1
  14    8    9 1
  15    8   11 1
  16    8   12 1
  17    9   33 1
  18    9   34 1
  19   10   11 ar
  20   10   13 1
  21   10   18 ar
  22   11   15 ar
  23   12   13 am
  24   12   14 2
  25   13   35 1
  26   15   16 ar
  27   15   19 1
  28   16   17 ar
  29   16   36 1
  30   17   18 ar
  31   17   37 1
  32   18   38 1
  33   19   20 ar
  34   19   24 ar
  35   20   21 ar
  36   20   39 1
  37   21   22 ar
  38   21   40 1
  39   22   23 ar
  40   22   25 1
  41   23   24 ar
  42   24   41 1
  43   25   26 1
  44   25   27 1
  45   26   42 1
  46   26   43 1
  47   26   44 1
  48   27   45 1
  49   27   46 1
  50   27   47 1
  51   28   29 1
  52   29   30 1
  53   29   48 1
  54   29   49 1

#	End of record

