#	Name: ASD02198868
#	Creating user name:	WinNT
#	Creation time:	15. 06. 2019 20:20

#	Modifying user name:	WinNT
#	Modification time:	15. 06. 2019 20:20

#	Program:	/corina/corina34_cracker 3.40 0067  02.08.2006

@<TRIPOS>MOLECULE
ASD02198868
  49   53    0    0    0
SMALL
NO_CHARGES


@<TRIPOS>ATOM
   1 F1             2.2523    -1.7120     2.4720 F       
   2 C2            -0.0433     1.5019    -0.1150 C.2     
   3 C3            -0.0731     0.1622     0.0975 C.2     
   4 N4             1.0711    -0.5395     0.2603 N.pl3   
   5 N5             2.2357    -0.0047     0.2267 N.2     
   6 C6             2.4073     1.2847     0.0281 C.2     
   7 C7             1.2216     2.1358    -0.1604 C.2     
   8 C8             0.9795    -1.9186     0.4768 C.ar    
   9 C9             1.5799    -2.4892     1.5951 C.ar    
  10 C10            1.4880    -3.8518     1.8077 C.ar    
  11 C11            0.7971    -4.6498     0.9058 C.ar    
  12 C12            0.1980    -4.0794    -0.2104 C.ar    
  13 C13            0.2843    -2.7186    -0.4215 C.ar    
  14 C14            3.7643     1.8669    -0.0040 C.2     
  15 N15            4.3067     2.6067    -1.0171 N.pl3   
  16 N16            5.6085     2.9580    -0.6390 N.2     
  17 C17            5.8519     2.4586     0.5465 C.2     
  18 C18            4.7195     1.7716     0.9841 C.2     
  19 C19            3.6741     2.9513    -2.2183 C.ar    
  20 C20            3.8083     4.2343    -2.7320 C.ar    
  21 C21            3.1839     4.5716    -3.9172 C.ar    
  22 C22            2.4255     3.6335    -4.5923 C.ar    
  23 C23            2.2890     2.3536    -4.0830 C.ar    
  24 C24            2.9162     2.0088    -2.9007 C.ar    
  25 O25            1.3246     3.3389    -0.3487 O.2     
  26 N26            0.7043    -6.0316     1.1212 N.pl3   
  27 C27            0.0555    -6.9237     0.3118 C.2     
  28 C28            0.1883    -8.1545     0.8496 C.2     
  29 C29            0.9455    -8.0208     2.0331 C.2     
  30 C30            1.2526    -6.7139     2.1728 C.2     
  31 Cl31           1.3348     1.1788    -4.9334 Cl      
  32 F32           -0.3127    -9.3042     0.3473 F       
  33 F33            1.3017    -9.0191     2.8707 F       
  34 C34            7.1404     2.6064     1.3140 C.3     
  35 H35           -0.9546     2.0656    -0.2495 H       
  36 H36           -1.0229    -0.3503     0.1375 H       
  37 H37            1.9538    -4.2958     2.6751 H       
  38 H38           -0.3391    -4.7012    -0.9113 H       
  39 H39           -0.1821    -2.2762    -1.2893 H       
  40 H40            4.6134     1.2522     1.9250 H       
  41 H41            4.4003     4.9681    -2.2052 H       
  42 H42            3.2880     5.5696    -4.3166 H       
  43 H43            1.9383     3.8997    -5.5187 H       
  44 H44            2.8099     1.0101    -2.5036 H       
  45 H45           -0.4721    -6.6844    -0.5997 H       
  46 H46            1.8260    -6.2807     2.9789 H       
  47 H47            7.0929     3.5011     1.9348 H       
  48 H48            7.2883     1.7319     1.9476 H       
  49 H49            7.9719     2.6932     0.6146 H       
@<TRIPOS>BOND
   1    1    9 1
   2    2    3 2
   3    2    7 1
   4    2   35 1
   5    3    4 1
   6    3   36 1
   7    4    5 1
   8    4    8 1
   9    5    6 2
  10    6    7 1
  11    6   14 1
  12    7   25 2
  13    8    9 ar
  14    8   13 ar
  15    9   10 ar
  16   10   11 ar
  17   10   37 1
  18   11   12 ar
  19   11   26 1
  20   12   13 ar
  21   12   38 1
  22   13   39 1
  23   14   15 1
  24   14   18 2
  25   15   16 1
  26   15   19 1
  27   16   17 2
  28   17   18 1
  29   17   34 1
  30   18   40 1
  31   19   20 ar
  32   19   24 ar
  33   20   21 ar
  34   20   41 1
  35   21   22 ar
  36   21   42 1
  37   22   23 ar
  38   22   43 1
  39   23   24 ar
  40   23   31 1
  41   24   44 1
  42   26   27 1
  43   26   30 1
  44   27   28 2
  45   27   45 1
  46   28   29 1
  47   28   32 1
  48   29   30 2
  49   29   33 1
  50   30   46 1
  51   34   47 1
  52   34   48 1
  53   34   49 1

#	End of record

