#	Name: ASD03092947
#	Creating user name:	WinNT
#	Creation time:	15. 06. 2019 20:33

#	Modifying user name:	WinNT
#	Modification time:	15. 06. 2019 20:33

#	Program:	/corina/corina34_cracker 3.40 0067  02.08.2006

@<TRIPOS>MOLECULE
ASD03092947
  52   55    0    0    0
SMALL
NO_CHARGES


@<TRIPOS>ATOM
   1 F1             0.0021    -0.0041     0.0020 F       
   2 C2            -0.0169     1.3948     0.0097 C.3     
   3 F3             1.2956     1.8790    -0.0002 F       
   4 F4            -0.6935     1.8582    -1.1237 F       
   5 C5            -0.7223     1.8808     1.2496 C.ar    
   6 C6            -2.0900     2.0866     1.2283 C.ar    
   7 C7            -2.7412     2.5316     2.3607 C.ar    
   8 C8            -2.0182     2.7732     3.5276 C.ar    
   9 C9            -0.6404     2.5636     3.5434 C.ar    
  10 C10           -0.0004     2.1139     2.4063 C.ar    
  11 C11           -2.7124     3.2520     4.7478 C.2     
  12 N12           -3.7737     4.0839     4.7836 N.2     
  13 C13           -4.1183     4.2869     6.0240 C.2     
  14 N14           -3.2829     3.5864     6.8333 N.pl3   
  15 C15           -3.3281     3.5411     8.2969 C.3     
  16 H16           -2.5438     2.8878     8.6792 H       
  17 C17           -4.7147     3.0534     8.7766 C.3     
  18 C18           -4.9847     3.9466    10.0136 C.3     
  19 N19           -4.4223     5.2576     9.6151 N.am    
  20 C20           -3.1760     4.9580     8.8809 C.3     
  21 C21           -4.9413     6.4749     9.8703 C.2     
  22 O22           -4.3702     7.4715     9.4808 O.2     
  23 C23           -6.2313     6.5979    10.6397 C.3     
  24 C24           -6.0607     5.9710    12.0249 C.3     
  25 C25           -7.3703     6.0959    12.8060 C.3     
  26 C26           -7.7355     7.5740    12.9565 C.3     
  27 F27           -8.9330     7.6881    13.6707 F       
  28 F28           -6.7158     8.2383    13.6466 F       
  29 C29           -7.9061     8.2008    11.5713 C.3     
  30 C30           -6.5964     8.0760    10.7902 C.3     
  31 C31           -2.3961     2.9260     6.0296 C.2     
  32 Cl32          -1.1125     1.8772     6.5455 Cl      
  33 H33           -2.6492     1.8991     0.3236 H       
  34 H34           -3.8090     2.6926     2.3428 H       
  35 H35           -0.0752     2.7492     4.4448 H       
  36 H36            1.0666     1.9476     2.4185 H       
  37 H37           -4.9352     4.9114     6.3545 H       
  38 H38           -5.4695     3.2199     8.0081 H       
  39 H39           -4.6769     2.0018     9.0607 H       
  40 H40           -6.0551     4.0287    10.2023 H       
  41 H41           -4.4674     3.5564    10.8900 H       
  42 H42           -2.3255     4.9895     9.5618 H       
  43 H43           -3.0367     5.6787     8.0751 H       
  44 H44           -7.0257     6.0803    10.1020 H       
  45 H45           -5.8005     4.9180    11.9176 H       
  46 H46           -5.2662     6.4886    12.5626 H       
  47 H47           -8.1648     5.5783    12.2683 H       
  48 H48           -7.2488     5.6493    13.7928 H       
  49 H49           -8.7005     7.6833    11.0336 H       
  50 H50           -8.1662     9.2539    11.6786 H       
  51 H51           -5.8020     8.5936    11.3279 H       
  52 H52           -6.7180     8.5226     9.8034 H       
@<TRIPOS>BOND
   1    1    2 1
   2    2    3 1
   3    2    4 1
   4    2    5 1
   5    5   10 ar
   6    5    6 ar
   7    6    7 ar
   8    6   33 1
   9    7    8 ar
  10    7   34 1
  11    8    9 ar
  12    8   11 1
  13    9   10 ar
  14    9   35 1
  15   10   36 1
  16   11   31 2
  17   11   12 1
  18   12   13 2
  19   13   14 1
  20   13   37 1
  21   14   15 1
  22   14   31 1
  23   15   16 1
  24   15   20 1
  25   15   17 1
  26   17   18 1
  27   17   38 1
  28   17   39 1
  29   18   19 1
  30   18   40 1
  31   18   41 1
  32   19   20 1
  33   19   21 am
  34   20   42 1
  35   20   43 1
  36   21   22 2
  37   21   23 1
  38   23   30 1
  39   23   24 1
  40   23   44 1
  41   24   25 1
  42   24   45 1
  43   24   46 1
  44   25   26 1
  45   25   47 1
  46   25   48 1
  47   26   27 1
  48   26   28 1
  49   26   29 1
  50   29   30 1
  51   29   49 1
  52   29   50 1
  53   30   51 1
  54   30   52 1
  55   31   32 1

#	End of record

