#	Name: ASD03090694
#	Creating user name:	WinNT
#	Creation time:	15. 06. 2019 20:29

#	Modifying user name:	WinNT
#	Modification time:	15. 06. 2019 20:29

#	Program:	/corina/corina34_cracker 3.40 0067  02.08.2006

@<TRIPOS>MOLECULE
ASD03090694
  28   29    0    0    0
SMALL
NO_CHARGES


@<TRIPOS>ATOM
   1 N1            -0.0162     1.3436     0.0094 N.am    
   2 C2             0.0559     0.0126     0.2092 C.2     
   3 O3             1.1398    -0.5295     0.3073 O.2     
   4 N4            -1.0734    -0.7174     0.3000 N.am    
   5 S5             0.4527    -2.9794     0.6625 S.3     
   6 C6            -0.9990    -2.0899     0.5060 C.2     
   7 N7            -2.0201    -2.8818     0.6082 N.2     
   8 C8            -1.7658    -4.1624     0.8040 C.2     
   9 C9            -0.4685    -4.4666     0.8704 C.2     
  10 C10           -2.8530    -5.1968     0.9422 C.3     
  11 F11           -4.0974    -4.5985     0.7165 F       
  12 F12           -2.6489    -6.2159     0.0058 F       
  13 F13           -2.8221    -5.7363     2.2327 F       
  14 C14            1.1525     2.1169     0.0124 C.ar    
  15 C15            2.3305     1.5971    -0.5068 C.ar    
  16 C16            3.4817     2.3599    -0.5040 C.ar    
  17 C17            3.4613     3.6450     0.0177 C.ar    
  18 C18            2.2847     4.1648     0.5371 C.ar    
  19 C19            1.1314     3.4053     0.5293 C.ar    
  20 O20            4.5953     4.3954     0.0206 O.3     
  21 H21           -0.8767     1.7656    -0.1403 H       
  22 H22           -1.9381    -0.2849     0.2217 H       
  23 H23           -0.0553    -5.4525     1.0241 H       
  24 H24            2.3467     0.5963    -0.9125 H       
  25 H25            4.3982     1.9556    -0.9079 H       
  26 H26            2.2696     5.1653     0.9435 H       
  27 H27            0.2143     3.8117     0.9296 H       
  28 H28            4.7135     4.9324    -0.7748 H       
@<TRIPOS>BOND
   1    1    2 am
   2    1   14 1
   3    1   21 1
   4    2    3 2
   5    2    4 am
   6    4    6 1
   7    4   22 1
   8    5    6 1
   9    5    9 1
  10    6    7 2
  11    7    8 1
  12    8    9 2
  13    8   10 1
  14    9   23 1
  15   10   11 1
  16   10   12 1
  17   10   13 1
  18   14   15 ar
  19   14   19 ar
  20   15   16 ar
  21   15   24 1
  22   16   17 ar
  23   16   25 1
  24   17   18 ar
  25   17   20 1
  26   18   19 ar
  27   18   26 1
  28   19   27 1
  29   20   28 1

#	End of record

