#	Name: ASD02508201
#	Creating user name:	WinNT
#	Creation time:	15. 06. 2019 20:23

#	Modifying user name:	WinNT
#	Modification time:	15. 06. 2019 20:23

#	Program:	/corina/corina34_cracker 3.40 0067  02.08.2006

@<TRIPOS>MOLECULE
ASD02508201
  35   37    0    0    0
SMALL
NO_CHARGES


@<TRIPOS>ATOM
   1 C1            -0.0996     1.6266     0.0185 C.ar    
   2 C2            -0.0309     0.2443    -0.1533 C.ar    
   3 C3            -1.1944    -0.5090    -0.1380 C.ar    
   4 C4            -2.4144     0.1116     0.0470 C.ar    
   5 C5            -2.4816     1.4836     0.2169 C.ar    
   6 C6            -1.3271     2.2418     0.2086 C.ar    
   7 S7            -3.8922    -0.8478     0.0661 S.o2    
   8 N8            -4.7915    -0.3889    -1.2465 N.am    
   9 C9            -4.3014    -0.5943    -2.5309 C.ar    
  10 N10            1.2102     2.1015    -0.0435 N.am    
  11 C11            2.0168     1.0405    -0.2436 C.2     
  12 O12            1.2766    -0.0773    -0.3104 O.3     
  13 O13           -3.4999    -2.1936    -0.1669 O.2     
  14 O14           -4.6214    -0.4386     1.2151 O.2     
  15 C15            1.6322     3.4985     0.0855 C.3     
  16 O16            3.2273     1.0884    -0.3477 O.2     
  17 C17           -3.8177     2.1513     0.4170 C.3     
  18 N18           -3.1626    -1.2480    -2.7021 N.ar    
  19 C19           -5.0145    -0.1161    -3.6254 C.ar    
  20 C20           -4.5151    -0.3275    -4.8981 C.ar    
  21 C21           -3.3151    -1.0124    -5.0338 C.ar    
  22 C22           -2.6628    -1.4642    -3.9039 C.ar    
  23 H23           -1.1470    -1.5797    -0.2708 H       
  24 H24           -1.3814     3.3122     0.3417 H       
  25 H25           -5.6604     0.0231    -1.1190 H       
  26 H26            1.8290     3.7232     1.1338 H       
  27 H27            2.5393     3.6593    -0.4971 H       
  28 H28            0.8423     4.1523    -0.2842 H       
  29 H29           -4.0942     2.1024     1.4702 H       
  30 H30           -3.7528     3.1941     0.1064 H       
  31 H31           -4.5724     1.6404    -0.1809 H       
  32 H32           -5.9454     0.4126    -3.4835 H       
  33 H33           -5.0470     0.0319    -5.7666 H       
  34 H34           -2.8985    -1.1941    -6.0135 H       
  35 H35           -1.7291    -1.9974    -4.0048 H       
@<TRIPOS>BOND
   1    1    2 ar
   2    1   10 1
   3    1    6 ar
   4    2    3 ar
   5    2   12 1
   6    3    4 ar
   7    3   23 1
   8    4    5 ar
   9    4    7 1
  10    5    6 ar
  11    5   17 1
  12    6   24 1
  13    7    8 am
  14    7   13 2
  15    7   14 2
  16    8    9 1
  17    8   25 1
  18    9   18 ar
  19    9   19 ar
  20   10   11 am
  21   10   15 1
  22   11   12 1
  23   11   16 2
  24   15   26 1
  25   15   27 1
  26   15   28 1
  27   17   29 1
  28   17   30 1
  29   17   31 1
  30   18   22 ar
  31   19   20 ar
  32   19   32 1
  33   20   21 ar
  34   20   33 1
  35   21   22 ar
  36   21   34 1
  37   22   35 1

#	End of record

