#	Name: ASD03092532
#	Creating user name:	WinNT
#	Creation time:	15. 06. 2019 20:32

#	Modifying user name:	WinNT
#	Modification time:	15. 06. 2019 20:32

#	Program:	/corina/corina34_cracker 3.40 0067  02.08.2006

@<TRIPOS>MOLECULE
ASD03092532
  38   40    0    0    0
SMALL
NO_CHARGES


@<TRIPOS>ATOM
   1 O1            -0.0143     1.2024     0.0087 O.3     
   2 N2             0.0021    -0.0041     0.0020 N.2     
   3 C3             1.2115    -0.4810    -0.0121 C.2     
   4 C4             2.0937     0.6961    -0.0142 C.2     
   5 C5             1.2058     1.7440    -0.0001 C.2     
   6 C6             3.5670     0.7401    -0.0276 C.2     
   7 O7             4.1650     0.7637    -1.0862 O.2     
   8 N8             4.2514     0.7543     1.1334 N.am    
   9 C9             5.7156     0.7981     1.1201 C.3     
  10 N10            7.6498     0.5538     6.4046 N.pl3   
  11 C11            7.7478    -0.8026     6.5557 C.2     
  12 C12            7.3559    -1.4181     5.4289 C.2     
  13 C13            6.9758    -0.3701     4.4786 C.ar    
  14 C14            6.4980    -0.3766     3.1666 C.ar    
  15 C15            6.2309     0.8058     2.5362 C.ar    
  16 C16            6.4308     2.0143     3.1897 C.ar    
  17 C17            6.9019     2.0437     4.4838 C.ar    
  18 C18            7.1805     0.8517     5.1449 C.ar    
  19 C19            8.2255    -1.5020     7.8022 C.3     
  20 C20            1.5421     3.2130     0.0046 C.3     
  21 C21            1.6221    -1.9310    -0.0234 C.3     
  22 H22            3.7744     0.7354     1.9778 H       
  23 H23            6.1006    -0.0780     0.5981 H       
  24 H24            6.0475     1.7012     0.6078 H       
  25 H25            7.8736     1.2079     7.0850 H       
  26 H26            7.3264    -2.4837     5.2559 H       
  27 H27            6.3409    -1.3128     2.6516 H       
  28 H28            6.2151     2.9406     2.6782 H       
  29 H29            7.0544     2.9889     4.9835 H       
  30 H30            7.3758    -1.7014     8.4552 H       
  31 H31            8.7035    -2.4430     7.5303 H       
  32 H32            8.9426    -0.8672     8.3228 H       
  33 H33            0.6215     3.7964     0.0170 H       
  34 H34            2.1329     3.4476     0.8900 H       
  35 H35            2.1152     3.4574    -0.8898 H       
  36 H36            1.7115    -2.2753    -1.0537 H       
  37 H37            2.5821    -2.0407     0.4810 H       
  38 H38            0.8695    -2.5257     0.4944 H       
@<TRIPOS>BOND
   1    1    2 1
   2    1    5 1
   3    2    3 2
   4    3    4 1
   5    3   21 1
   6    4    5 2
   7    4    6 1
   8    5   20 1
   9    6    7 2
  10    6    8 am
  11    8    9 1
  12    8   22 1
  13    9   15 1
  14    9   23 1
  15    9   24 1
  16   10   11 1
  17   10   18 1
  18   10   25 1
  19   11   12 2
  20   11   19 1
  21   12   13 1
  22   12   26 1
  23   13   14 ar
  24   13   18 ar
  25   14   15 ar
  26   14   27 1
  27   15   16 ar
  28   16   17 ar
  29   16   28 1
  30   17   18 ar
  31   17   29 1
  32   19   30 1
  33   19   31 1
  34   19   32 1
  35   20   33 1
  36   20   34 1
  37   20   35 1
  38   21   36 1
  39   21   37 1
  40   21   38 1

#	End of record

