#	Name: ASD02610026
#	Creating user name:	WinNT
#	Creation time:	15. 06. 2019 20:25

#	Modifying user name:	WinNT
#	Modification time:	15. 06. 2019 20:25

#	Program:	/corina/corina34_cracker 3.40 0067  02.08.2006

@<TRIPOS>MOLECULE
ASD02610026
 111  114    0    0    0
SMALL
NO_CHARGES


@<TRIPOS>ATOM
   1 C1             0.7077     2.2187    -0.0187 C.3     
   2 C2             0.8898     0.6820     0.0202 C.3     
   3 C3             2.3136     0.4542    -0.4310 C.2     
   4 C4             3.0152     1.5623    -0.3681 C.2     
   5 C5             2.1651     2.6904     0.1439 C.3     
   6 C6             4.4533     1.6860    -0.7973 C.3     
   7 C7             5.1657     2.7768    -0.0266 C.3     
   8 C8             4.9075     4.1732    -0.5029 C.3     
   9 C9             3.6348     4.7553     0.0561 C.3     
  10 C10            2.4151     4.0199    -0.4751 C.3     
  11 O11           -0.0244     0.0491    -0.8774 O.3     
  12 C12            2.8580    -0.8728    -0.8933 C.3     
  13 O13           -0.1166     2.6760     1.0858 O.3     
  14 H14            2.3591     2.7888     1.2119 H       
  15 O15            1.2466     4.8537    -0.2569 O.3     
  16 C16            2.5874     3.8256    -1.9829 C.3     
  17 O17            4.8231     4.1653    -1.9294 O.3     
  18 O18            5.1958     0.4893    -0.5050 O.3     
  19 C19            6.5879     0.8660    -0.4857 C.3     
  20 C20            6.6503     2.3716    -0.1431 C.3     
  21 O21            4.7778     2.6928     1.3462 O.3     
  22 C22           -1.4377     2.7635     0.8647 C.2     
  23 C23           -2.3563     3.2306     1.9643 C.3     
  24 C24           -3.7988     3.2392     1.4545 C.3     
  25 C25           -4.7315     3.7134     2.5708 C.3     
  26 C26           -6.1740     3.7219     2.0610 C.3     
  27 C27           -7.1066     4.1962     3.1774 C.3     
  28 O28           -1.8903     2.4678    -0.2158 O.2     
  29 O29            7.2897     3.1003    -1.1930 O.3     
  30 C30           -8.5492     4.2047     2.6676 C.3     
  31 C31           -9.4818     4.6789     3.7839 C.3     
  32 C32            7.3748     2.5920     1.1863 C.3     
  33 C33            1.2506     6.0694    -0.8259 C.2     
  34 C34            0.1114     7.0232    -0.5737 C.3     
  35 O35            2.1677     6.3991    -1.5402 O.2     
  36 H36            4.5020     1.8977    -1.8655 H       
  37 C37            7.2132     0.6185    -1.8600 C.3     
  38 O38            7.2817     0.1117     0.5102 O.3     
  39 C39           -0.4449    -1.1906    -0.5504 C.2     
  40 C40           -1.3524    -1.8773    -1.3957 C.2     
  41 O41           -0.0453    -1.7190     0.4699 O.2     
  42 C42           -1.7735    -3.1187    -1.0682 C.2     
  43 C43           -2.7141    -3.8304    -1.9444 C.ar    
  44 C44           -3.1518    -5.1169    -1.6070 C.ar    
  45 C45           -4.0327    -5.7797    -2.4306 C.ar    
  46 C46           -4.4884    -5.1732    -3.5974 C.ar    
  47 C47           -4.0557    -3.8948    -3.9370 C.ar    
  48 C48           -3.1798    -3.2220    -3.1163 C.ar    
  49 N49           -5.3812    -5.8489    -4.4292 N.am    
  50 C50           -6.3234    -6.6516    -3.8958 C.2     
  51 O51           -7.2459    -7.2269    -4.6901 O.3     
  52 C52           -8.2301    -8.0791    -4.0472 C.3     
  53 C53           -9.0210    -7.2623    -3.0234 C.3     
  54 C54           -9.1867    -8.6389    -5.1018 C.3     
  55 C55           -7.5195    -9.2342    -3.3388 C.3     
  56 O56           -6.3403    -6.8560    -2.6982 O.2     
  57 H57            0.2947     2.5412    -0.9744 H       
  58 H58            0.7482     0.3081     1.0342 H       
  59 H59            5.7438     4.8062    -0.2060 H       
  60 H60            3.6537     4.6776     1.1432 H       
  61 H61            3.5689     5.8064    -0.2250 H       
  62 H62            2.0697    -1.6242    -0.8490 H       
  63 H63            3.2157    -0.7814    -1.9188 H       
  64 H64            3.6824    -1.1726    -0.2463 H       
  65 H65            1.6304     3.5489    -2.4253 H       
  66 H66            2.9397     4.7547    -2.4310 H       
  67 H67            3.3148     3.0349    -2.1666 H       
  68 H68            4.6568     5.0349    -2.3184 H       
  69 H69            4.9214     1.8227     1.7429 H       
  70 H70           -2.2760     2.5554     2.8162 H       
  71 H71           -2.0733     4.2376     2.2709 H       
  72 H72           -3.8791     3.9144     0.6026 H       
  73 H73           -4.0818     2.2322     1.1479 H       
  74 H74           -4.6512     3.0382     3.4227 H       
  75 H75           -4.4485     4.7204     2.8774 H       
  76 H76           -6.2543     4.3971     1.2091 H       
  77 H77           -6.4570     2.7149     1.7545 H       
  78 H78           -7.0263     3.5209     4.0293 H       
  79 H79           -6.8237     5.2032     3.4840 H       
  80 H80            8.2249     2.8837    -1.3091 H       
  81 H81           -8.6295     4.8799     1.8157 H       
  82 H82           -8.8321     3.1977     2.3610 H       
  83 H83           -9.4015     4.0037     4.6358 H       
  84 H84           -9.1988     5.6859     4.0905 H       
  85 H85          -10.5095     4.6850     3.4207 H       
  86 H86            6.9037     1.9876     1.9614 H       
  87 H87            8.4200     2.3004     1.0832 H       
  88 H88            7.3168     3.6451     1.4614 H       
  89 H89            0.3350     7.6328     0.3019 H       
  90 H90           -0.0208     7.6689    -1.4418 H       
  91 H91           -0.8038     6.4578    -0.3986 H       
  92 H92            6.6739     1.1928    -2.6133 H       
  93 H93            8.2578     0.9294    -1.8451 H       
  94 H94            7.1533    -0.4429    -2.1006 H       
  95 H95            7.2696    -0.8434     0.3596 H       
  96 H96           -1.7072    -1.4082    -2.3016 H       
  97 H97           -1.4187    -3.5878    -0.1624 H       
  98 H98           -2.7984    -5.5885    -0.7020 H       
  99 H99           -4.3706    -6.7722    -2.1714 H       
 100 H100          -4.4115    -3.4284    -4.8438 H       
 101 H101          -2.8445    -2.2299    -3.3807 H       
 102 H102          -5.3240    -5.7410    -5.3914 H       
 103 H103          -9.5272    -6.4394    -3.5281 H       
 104 H104          -9.7598    -7.9021    -2.5407 H       
 105 H105          -8.3394    -6.8635    -2.2720 H       
 106 H106          -8.6233    -9.2208    -5.8312 H       
 107 H107          -9.9256    -9.2787    -4.6192 H       
 108 H108          -9.6929    -7.8160    -5.6065 H       
 109 H109          -6.8380    -8.8355    -2.5874 H       
 110 H110          -8.2583    -9.8740    -2.8561 H       
 111 H111          -6.9560    -9.8162    -4.0681 H       
@<TRIPOS>BOND
   1    1    2 1
   2    1    5 1
   3    1   13 1
   4    1   57 1
   5    2    3 1
   6    2   11 1
   7    2   58 1
   8    3    4 2
   9    3   12 1
  10    4    5 1
  11    4    6 1
  12    5   10 1
  13    5   14 1
  14    6    7 1
  15    6   18 1
  16    6   36 1
  17    7   20 1
  18    7   21 1
  19    7    8 1
  20    8    9 1
  21    8   17 1
  22    8   59 1
  23    9   10 1
  24    9   60 1
  25    9   61 1
  26   10   15 1
  27   10   16 1
  28   11   39 1
  29   12   62 1
  30   12   63 1
  31   12   64 1
  32   13   22 1
  33   15   33 1
  34   16   65 1
  35   16   66 1
  36   16   67 1
  37   17   68 1
  38   18   19 1
  39   19   20 1
  40   19   37 1
  41   19   38 1
  42   20   29 1
  43   20   32 1
  44   21   69 1
  45   22   23 1
  46   22   28 2
  47   23   24 1
  48   23   70 1
  49   23   71 1
  50   24   25 1
  51   24   72 1
  52   24   73 1
  53   25   26 1
  54   25   74 1
  55   25   75 1
  56   26   27 1
  57   26   76 1
  58   26   77 1
  59   27   30 1
  60   27   78 1
  61   27   79 1
  62   29   80 1
  63   30   31 1
  64   30   81 1
  65   30   82 1
  66   31   83 1
  67   31   84 1
  68   31   85 1
  69   32   86 1
  70   32   87 1
  71   32   88 1
  72   33   34 1
  73   33   35 2
  74   34   89 1
  75   34   90 1
  76   34   91 1
  77   37   92 1
  78   37   93 1
  79   37   94 1
  80   38   95 1
  81   39   40 1
  82   39   41 2
  83   40   42 2
  84   40   96 1
  85   42   43 1
  86   42   97 1
  87   43   44 ar
  88   43   48 ar
  89   44   45 ar
  90   44   98 1
  91   45   46 ar
  92   45   99 1
  93   46   47 ar
  94   46   49 1
  95   47   48 ar
  96   47  100 1
  97   48  101 1
  98   49   50 am
  99   49  102 1
 100   50   51 1
 101   50   56 2
 102   51   52 1
 103   52   53 1
 104   52   54 1
 105   52   55 1
 106   53  103 1
 107   53  104 1
 108   53  105 1
 109   54  106 1
 110   54  107 1
 111   54  108 1
 112   55  109 1
 113   55  110 1
 114   55  111 1

#	End of record

