#	Name: ASD01914790
#	Creating user name:	WinNT
#	Creation time:	15. 06. 2019 20:04

#	Modifying user name:	WinNT
#	Modification time:	15. 06. 2019 20:04

#	Program:	/corina/corina34_cracker 3.40 0067  02.08.2006

@<TRIPOS>MOLECULE
ASD01914790
  32   34    0    0    0
SMALL
NO_CHARGES


@<TRIPOS>ATOM
   1 C1            -0.0157     1.3090     0.0092 C.2     
   2 N2             0.0021    -0.0041     0.0020 N.2     
   3 C3             1.2785    -0.4287    -0.0125 C.2     
   4 C4             2.0869     0.6653    -0.0143 C.2     
   5 N5             1.2715     1.7622    -0.0006 N.pl3   
   6 C6            -1.2286     2.1555     0.0198 C.ar    
   7 C7            -2.4938     1.5670     0.0234 C.ar    
   8 C8            -3.6212     2.3623     0.0338 C.ar    
   9 C9            -3.4992     3.7404     0.0406 C.ar    
  10 C10           -2.2477     4.3301     0.0367 C.ar    
  11 C11           -1.1124     3.5460     0.0321 C.ar    
  12 C12            1.7263    -1.8434    -0.0243 C.ar    
  13 C13            0.7877    -2.8736    -0.0214 C.ar    
  14 C14            1.2085    -4.1875    -0.0330 C.ar    
  15 C15            2.5620    -4.4835    -0.0474 C.ar    
  16 C16            3.4984    -3.4627    -0.0499 C.ar    
  17 C17            3.0863    -2.1456    -0.0442 C.ar    
  18 C18            0.1945    -5.3024    -0.0293 C.3     
  19 F19            2.9697    -5.7714    -0.0587 F       
  20 H20            3.1669     0.6668    -0.0246 H       
  21 H21            1.5550     2.6898     0.0012 H       
  22 H22           -2.5903     0.4914     0.0177 H       
  23 H23           -4.6010     1.9080     0.0362 H       
  24 H24           -4.3848     4.3585     0.0487 H       
  25 H25           -2.1592     5.4064     0.0417 H       
  26 H26           -0.1360     4.0075     0.0336 H       
  27 H27           -0.2675    -2.6438    -0.0098 H       
  28 H28            4.5524    -3.6979    -0.0605 H       
  29 H29            3.8170    -1.3503    -0.0507 H       
  30 H30           -0.0600    -5.5653    -1.0561 H       
  31 H31            0.6134    -6.1728     0.4755 H       
  32 H32           -0.7032    -4.9753     0.4952 H       
@<TRIPOS>BOND
   1    1    2 2
   2    1    5 1
   3    1    6 1
   4    2    3 1
   5    3    4 2
   6    3   12 1
   7    4    5 1
   8    4   20 1
   9    5   21 1
  10    6    7 ar
  11    6   11 ar
  12    7    8 ar
  13    7   22 1
  14    8    9 ar
  15    8   23 1
  16    9   10 ar
  17    9   24 1
  18   10   11 ar
  19   10   25 1
  20   11   26 1
  21   12   13 ar
  22   12   17 ar
  23   13   14 ar
  24   13   27 1
  25   14   15 ar
  26   14   18 1
  27   15   16 ar
  28   15   19 1
  29   16   17 ar
  30   16   28 1
  31   17   29 1
  32   18   30 1
  33   18   31 1
  34   18   32 1

#	End of record

