#	Name: ASD01410630
#	Creating user name:	WinNT
#	Creation time:	15. 06. 2019 19:18

#	Modifying user name:	WinNT
#	Modification time:	15. 06. 2019 19:18

#	Program:	/corina/corina34_cracker 3.40 0067  02.08.2006

@<TRIPOS>MOLECULE
ASD01410630
  54   56    0    0    0
SMALL
NO_CHARGES


@<TRIPOS>ATOM
   1 C1             1.7674     3.6447     2.8511 C.ar    
   2 C2             2.4711     3.2095     3.9654 C.ar    
   3 C3             3.6011     2.4351     3.7909 C.ar    
   4 N4             4.0162     2.1073     2.5824 N.ar    
   5 C5             3.3726     2.5029     1.4963 C.ar    
   6 C6             2.2282     3.2836     1.5968 C.ar    
   7 O7             3.8347     2.1426     0.2727 O.3     
   8 C8             5.0098     1.4615     0.2093 C.ar    
   9 C9             5.0864     0.1650     0.7040 C.ar    
  10 C10            6.2741    -0.5353     0.6447 C.ar    
  11 C11            7.4028     0.0523     0.0897 C.ar    
  12 C12            7.3320     1.3613    -0.4115 C.ar    
  13 C13            6.1234     2.0593    -0.3522 C.ar    
  14 N14            8.6016    -0.6547     0.0310 N.am    
  15 C15            8.9216    -1.3475    -1.0799 C.2     
  16 C16            9.5145    -0.6451     1.1767 C.3     
  17 O17            9.9308    -2.0241    -1.1044 O.2     
  18 C18            8.0437    -1.2841    -2.2705 C.ar    
  19 N19            7.0040    -0.4584    -2.2782 N.ar    
  20 C20            6.1998    -0.3714    -3.3145 C.ar    
  21 C21            6.4106    -1.1457    -4.4465 C.ar    
  22 C22            7.4858    -2.0218    -4.4800 C.ar    
  23 C23            8.3192    -2.0875    -3.3751 C.ar    
  24 Cl24           5.3394    -1.0198    -5.8069 Cl      
  25 C25           10.8843    -0.1278     0.7330 C.3     
  26 C26            9.6592    -2.0660     1.7253 C.3     
  27 O27            8.4039    -2.5048     2.2484 O.3     
  28 C28            8.4297    -3.8275     2.7887 C.3     
  29 C29            1.4983     3.7319     0.3570 C.3     
  30 F30            0.3874     4.5000     0.7219 F       
  31 F31            2.3562     4.5006    -0.4370 F       
  32 F32            1.0737     2.6113    -0.3650 F       
  33 C33            8.5249     1.9941    -1.0021 C.2     
  34 O34            9.5469     1.3519    -1.1420 O.2     
  35 O35            8.4821     3.2848    -1.3870 O.3     
  36 H36            0.8781     4.2477     2.9603 H       
  37 H37            2.1386     3.4739     4.9584 H       
  38 H38            4.1523     2.0939     4.6548 H       
  39 H39            4.2117    -0.2970     1.1374 H       
  40 H40            6.3257    -1.5425     1.0312 H       
  41 H41            6.0609     3.0668    -0.7362 H       
  42 H42            9.1148     0.0057     1.9544 H       
  43 H43            5.3637     0.3116    -3.2843 H       
  44 H44            7.6715    -2.6353    -5.3492 H       
  45 H45            9.1658    -2.7580    -3.3669 H       
  46 H46           10.8047     0.9249     0.4617 H       
  47 H47           11.5970    -0.2394     1.5502 H       
  48 H48           11.2272    -0.7002    -0.1288 H       
  49 H49            9.9726    -2.7349     0.9237 H       
  50 H50           10.4065    -2.0748     2.5188 H       
  51 H51            9.1515    -3.8728     3.6043 H       
  52 H52            7.4398    -4.0857     3.1649 H       
  53 H53            8.7176    -4.5329     2.0092 H       
  54 H54            9.2892     3.6560    -1.7690 H       
@<TRIPOS>BOND
   1    1    2 ar
   2    1    6 ar
   3    1   36 1
   4    2    3 ar
   5    2   37 1
   6    3    4 ar
   7    3   38 1
   8    4    5 ar
   9    5    6 ar
  10    5    7 1
  11    6   29 1
  12    7    8 1
  13    8    9 ar
  14    8   13 ar
  15    9   10 ar
  16    9   39 1
  17   10   11 ar
  18   10   40 1
  19   11   12 ar
  20   11   14 1
  21   12   13 ar
  22   12   33 1
  23   13   41 1
  24   14   15 am
  25   14   16 1
  26   15   17 2
  27   15   18 1
  28   16   25 1
  29   16   26 1
  30   16   42 1
  31   18   19 ar
  32   18   23 ar
  33   19   20 ar
  34   20   21 ar
  35   20   43 1
  36   21   22 ar
  37   21   24 1
  38   22   23 ar
  39   22   44 1
  40   23   45 1
  41   25   46 1
  42   25   47 1
  43   25   48 1
  44   26   27 1
  45   26   49 1
  46   26   50 1
  47   27   28 1
  48   28   51 1
  49   28   52 1
  50   28   53 1
  51   29   30 1
  52   29   31 1
  53   29   32 1
  54   33   34 2
  55   33   35 1
  56   35   54 1

#	End of record

