#	Name: ASD01810329
#	Creating user name:	WinNT
#	Creation time:	15. 06. 2019 19:24

#	Modifying user name:	WinNT
#	Modification time:	15. 06. 2019 19:24

#	Program:	/corina/corina34_cracker 3.40 0067  02.08.2006

@<TRIPOS>MOLECULE
ASD01810329
  53   54    0    0    0
SMALL
NO_CHARGES


@<TRIPOS>ATOM
   1 C1             0.6789     0.2031     0.6028 C.3     
   2 C2             0.4230    -1.3031     0.4996 C.3     
   3 C3            -1.0856    -1.5586     0.4731 C.3     
   4 N4            -1.6957    -1.0230     1.6967 N.3     
   5 C5            -1.5038     0.4296     1.7938 C.3     
   6 C6            -0.0076     0.7445     1.8598 C.3     
   7 C7             2.1844     0.4611     0.6910 C.3     
   8 C8             2.4457     1.9684     0.6684 C.3     
   9 C9             3.9512     2.2264     0.7566 C.3     
  10 C10            4.2125     3.7338     0.7340 C.3     
  11 C11           -3.1208    -1.3718     1.7707 C.3     
  12 C12           -3.6607    -1.0197     3.1583 C.3     
  13 C13           -5.1449    -1.3830     3.2353 C.3     
  14 C14           -5.6767    -1.0362     4.6020 C.2     
  15 C15           -7.0888    -1.2916     4.9287 C.ar    
  16 C16           -7.9093    -1.9673     4.0202 C.ar    
  17 C17           -9.2314    -2.2027     4.3337 C.ar    
  18 C18           -9.7466    -1.7722     5.5437 C.ar    
  19 C19           -8.9408    -1.1026     6.4484 C.ar    
  20 C20           -7.6156    -0.8647     6.1521 C.ar    
  21 C21           -6.7400    -0.1356     7.1385 C.3     
  22 O22           -4.9412    -0.5468     5.4325 O.2     
  23 H23            0.2747     0.7023    -0.2779 H       
  24 H24            0.8733    -1.6868    -0.4158 H       
  25 H25            0.8623    -1.8066     1.3608 H       
  26 H26           -1.5222    -1.0663    -0.3959 H       
  27 H27           -1.2713    -2.6311     0.4141 H       
  28 H28           -1.9384     0.9127     0.9186 H       
  29 H29           -1.9932     0.8013     2.6940 H       
  30 H30            0.4249     0.2732     2.7423 H       
  31 H31            0.1350     1.8237     1.9161 H       
  32 H32            2.5716     0.0391     1.6184 H       
  33 H33            2.6836    -0.0070    -0.1574 H       
  34 H34            2.0585     2.3904    -0.2590 H       
  35 H35            1.9465     2.4365     1.5168 H       
  36 H36            4.3384     1.8044     1.6841 H       
  37 H37            4.4504     1.7584    -0.0918 H       
  38 H38            5.2850     3.9176     0.7969 H       
  39 H39            3.8253     4.1558    -0.1934 H       
  40 H40            3.7133     4.2018     1.5825 H       
  41 H41           -3.6714    -0.8130     1.0140 H       
  42 H42           -3.2429    -2.4404     1.5937 H       
  43 H43           -3.1101    -1.5786     3.9149 H       
  44 H44           -3.5386     0.0488     3.3352 H       
  45 H45           -5.6956    -0.8242     2.4786 H       
  46 H46           -5.2671    -2.4516     3.0583 H       
  47 H47           -7.5087    -2.3036     3.0753 H       
  48 H48           -9.8665    -2.7242     3.6329 H       
  49 H49          -10.7830    -1.9592     5.7833 H       
  50 H50           -9.3503    -0.7694     7.3906 H       
  51 H51           -6.1787    -0.8589     7.7300 H       
  52 H52           -6.0462     0.5102     6.6003 H       
  53 H53           -7.3618     0.4692     7.7985 H       
@<TRIPOS>BOND
   1    1    2 1
   2    1    7 1
   3    1    6 1
   4    1   23 1
   5    2    3 1
   6    2   24 1
   7    2   25 1
   8    3    4 1
   9    3   26 1
  10    3   27 1
  11    4    5 1
  12    4   11 1
  13    5    6 1
  14    5   28 1
  15    5   29 1
  16    6   30 1
  17    6   31 1
  18    7    8 1
  19    7   32 1
  20    7   33 1
  21    8    9 1
  22    8   34 1
  23    8   35 1
  24    9   10 1
  25    9   36 1
  26    9   37 1
  27   10   38 1
  28   10   39 1
  29   10   40 1
  30   11   12 1
  31   11   41 1
  32   11   42 1
  33   12   13 1
  34   12   43 1
  35   12   44 1
  36   13   14 1
  37   13   45 1
  38   13   46 1
  39   14   15 1
  40   14   22 2
  41   15   16 ar
  42   15   20 ar
  43   16   17 ar
  44   16   47 1
  45   17   18 ar
  46   17   48 1
  47   18   19 ar
  48   18   49 1
  49   19   20 ar
  50   19   50 1
  51   20   21 1
  52   21   51 1
  53   21   52 1
  54   21   53 1

#	End of record

