#	Name: ASD01913077
#	Creating user name:	WinNT
#	Creation time:	15. 06. 2019 20:00

#	Modifying user name:	WinNT
#	Modification time:	15. 06. 2019 20:00

#	Program:	/corina/corina34_cracker 3.40 0067  02.08.2006

@<TRIPOS>MOLECULE
ASD01913077
  39   41    0    0    0
SMALL
NO_CHARGES


@<TRIPOS>ATOM
   1 N1            -0.0169     1.3965     0.0097 N.2     
   2 N2             0.0021    -0.0041     0.0020 N.pl3   
   3 C3             1.2284     1.8226     0.0001 C.2     
   4 C4             2.0722     0.6950    -0.0140 C.2     
   5 C5             1.2909    -0.4070    -0.0125 C.2     
   6 C6             1.7727    -1.8348    -0.0237 C.3     
   7 C7             1.6661     3.2408     0.0031 C.ar    
   8 C8             0.8236    -2.7000     0.8079 C.3     
   9 C9             1.8039    -2.3512    -1.4636 C.3     
  10 C10            3.0185     3.5548    -0.1136 C.ar    
  11 C11            3.4233     4.8748    -0.1111 C.ar    
  12 C12            2.4901     5.8874     0.0071 C.ar    
  13 C13            1.1406     5.5829     0.1238 C.ar    
  14 C14            0.7256     4.2616     0.1168 C.ar    
  15 C15            2.2932    -3.8008    -1.4751 C.3     
  16 C16            1.3441    -4.6659    -0.6435 C.3     
  17 C17            1.3129    -4.1496     0.7964 C.3     
  18 O18            0.2264     6.5817     0.2403 O.3     
  19 C19            0.7245     7.9211     0.2352 C.3     
  20 H20           -0.7755    -0.5839     0.0068 H       
  21 H21            3.1521     0.7089    -0.0242 H       
  22 H22            2.7752    -1.8833     0.4014 H       
  23 H23            0.8014    -2.3321     1.8337 H       
  24 H24           -0.1788    -2.6514     0.3827 H       
  25 H25            0.8014    -2.3026    -1.8888 H       
  26 H26            2.4801    -1.7348    -2.0561 H       
  27 H27            3.7501     2.7657    -0.2058 H       
  28 H28            4.4719     5.1167    -0.2013 H       
  29 H29            2.8116     6.9185     0.0089 H       
  30 H30           -0.3239     4.0232     0.2076 H       
  31 H31            2.3154    -4.1686    -2.5009 H       
  32 H32            3.2956    -3.8493    -1.0499 H       
  33 H33            0.3416    -4.6174    -1.0687 H       
  34 H34            1.6926    -5.6987    -0.6517 H       
  35 H35            2.3154    -4.1981     1.2216 H       
  36 H36            0.6367    -4.7659     1.3889 H       
  37 H37            1.4132     8.0558     1.0692 H       
  38 H38            1.2475     8.1106    -0.7022 H       
  39 H39           -0.1073     8.6185     0.3345 H       
@<TRIPOS>BOND
   1    1    2 1
   2    1    3 2
   3    2    5 1
   4    2   20 1
   5    3    4 1
   6    3    7 1
   7    4    5 2
   8    4   21 1
   9    5    6 1
  10    6    8 1
  11    6    9 1
  12    6   22 1
  13    7   10 ar
  14    7   14 ar
  15    8   17 1
  16    8   23 1
  17    8   24 1
  18    9   15 1
  19    9   25 1
  20    9   26 1
  21   10   11 ar
  22   10   27 1
  23   11   12 ar
  24   11   28 1
  25   12   13 ar
  26   12   29 1
  27   13   14 ar
  28   13   18 1
  29   14   30 1
  30   15   16 1
  31   15   31 1
  32   15   32 1
  33   16   17 1
  34   16   33 1
  35   16   34 1
  36   17   35 1
  37   17   36 1
  38   18   19 1
  39   19   37 1
  40   19   38 1
  41   19   39 1

#	End of record

