#	Name: ASD07301365
#	Creating user name:	WinNT
#	Creation time:	15. 06. 2019 21:11

#	Modifying user name:	WinNT
#	Modification time:	15. 06. 2019 21:11

#	Program:	/corina/corina34_cracker 3.40 0067  02.08.2006

@<TRIPOS>MOLECULE
ASD07301365
  41   42    0    0    0
SMALL
NO_CHARGES


@<TRIPOS>ATOM
   1 C1            -0.0169     1.4661     0.0585 C.2     
   2 C2             0.0021    -0.0040     0.0010 C.2     
   3 C3             1.2715    -0.6339    -0.0633 C.2     
   4 C4             2.3706     0.1578    -0.0672 C.2     
   5 N5             2.2550     1.5070    -0.0114 N.pl3   
   6 N6             1.1280     2.1149     0.0476 N.2     
   7 O7            -1.0314    -0.6546     0.0087 O.2     
   8 C8             3.4243     2.2747    -0.0184 C.ar    
   9 C9             4.6644     1.6552     0.0712 C.ar    
  10 C10            5.8168     2.4160     0.0635 C.ar    
  11 C11            5.7373     3.7933    -0.0333 C.ar    
  12 C12            4.5044     4.4133    -0.1222 C.ar    
  13 C13            3.3482     3.6581    -0.1208 C.ar    
  14 S14            7.2102     4.7603    -0.0428 S.o2    
  15 O15            6.8028     6.0244     0.4627 O.2     
  16 O16            8.1573     3.9631     0.6548 O.2     
  17 C17            7.6556     4.8895    -1.7965 C.3     
  18 C18           -1.2981     2.2008     0.1211 C.2     
  19 C19           -1.3010     3.6123     0.1759 C.2     
  20 C20           -2.4729     4.2842     0.2332 C.2     
  21 O21           -2.3517     1.5888     0.1255 O.2     
  22 N22           -2.4757     5.6485     0.2862 N.pl3   
  23 C23           -1.2089     6.3843     0.2809 C.3     
  24 C24           -3.7454     6.3765     0.3482 C.3     
  25 H25            1.3589    -1.7094    -0.1074 H       
  26 H26            3.3514    -0.2918    -0.1151 H       
  27 H27            4.7272     0.5797     0.1472 H       
  28 H28            6.7813     1.9350     0.1335 H       
  29 H29            4.4458     5.4891    -0.1973 H       
  30 H30            2.3858     4.1426    -0.1948 H       
  31 H31            6.8465     5.3751    -2.3420 H       
  32 H32            8.5669     5.4790    -1.8975 H       
  33 H33            7.8210     3.8921    -2.2038 H       
  34 H34           -0.3671     4.1547     0.1720 H       
  35 H35           -3.4068     3.7418     0.2371 H       
  36 H36           -0.6607     6.1574    -0.6335 H       
  37 H37           -1.4102     7.4545     0.3278 H       
  38 H38           -0.6133     6.0884     1.1445 H       
  39 H39           -4.0330     6.5173     1.3902 H       
  40 H40           -3.6307     7.3485    -0.1315 H       
  41 H41           -4.5173     5.8055    -0.1677 H       
@<TRIPOS>BOND
   1    1    2 1
   2    1    6 2
   3    1   18 1
   4    2    3 1
   5    2    7 2
   6    3    4 2
   7    3   25 1
   8    4    5 1
   9    4   26 1
  10    5    6 1
  11    5    8 1
  12    8    9 ar
  13    8   13 ar
  14    9   10 ar
  15    9   27 1
  16   10   11 ar
  17   10   28 1
  18   11   12 ar
  19   11   14 1
  20   12   13 ar
  21   12   29 1
  22   13   30 1
  23   14   15 2
  24   14   16 2
  25   14   17 1
  26   17   31 1
  27   17   32 1
  28   17   33 1
  29   18   19 1
  30   18   21 2
  31   19   20 2
  32   19   34 1
  33   20   22 1
  34   20   35 1
  35   22   23 1
  36   22   24 1
  37   23   36 1
  38   23   37 1
  39   23   38 1
  40   24   39 1
  41   24   40 1
  42   24   41 1

#	End of record

