#	Name: ASD03730843
#	Creating user name:	WinNT
#	Creation time:	15. 06. 2019 20:44

#	Modifying user name:	WinNT
#	Modification time:	15. 06. 2019 20:44

#	Program:	/corina/corina34_cracker 3.40 0067  02.08.2006

@<TRIPOS>MOLECULE
ASD03730843
  62   68    0    0    0
SMALL
NO_CHARGES


@<TRIPOS>ATOM
   1 C1             1.3559    -1.2440    -2.5622 C.2     
   2 C2             0.7454    -1.4891    -1.2385 C.ar    
   3 C3             1.4845    -1.2714    -0.0743 C.ar    
   4 C4             0.9088    -1.5022     1.1577 C.ar    
   5 C5            -0.3985    -1.9483     1.2413 C.ar    
   6 C6            -1.1363    -2.1664     0.0916 C.ar    
   7 C7            -0.5745    -1.9336    -1.1469 C.ar    
   8 O8             2.4746    -0.7742    -2.6380 O.2     
   9 N9             0.6746    -1.5465    -3.6850 N.am    
  10 C10            2.9084    -0.7860    -0.1635 C.3     
  11 O11            1.4241    -3.3800     6.3755 O.3     
  12 C12            1.6421    -3.4646     7.7962 C.3     
  13 O13            3.0743    -3.3982     7.9274 O.3     
  14 C14            3.5094    -2.6996     6.8376 C.ar    
  15 C15            2.4946    -2.6897     5.8834 C.ar    
  16 C16            4.7084    -2.0600     6.5789 C.ar    
  17 C17            4.9114    -1.4055     5.3677 C.ar    
  18 C18            3.8933    -1.4096     4.4190 C.ar    
  19 C19            2.6944    -2.0411     4.6764 C.ar    
  20 O20            5.9969    -0.7086     4.9245 O.3     
  21 C21            4.4168    -0.6570     3.2250 C.3     
  22 C22            5.9263    -0.5802     3.4913 C.3     
  23 N23            3.4078    -0.4878     1.1811 N.am    
  24 C24            4.1111    -1.3580     1.9328 C.2     
  25 C25            3.8017     0.7048     3.0940 C.ar    
  26 C26            3.7354     1.8025     3.9227 C.ar    
  27 C27            3.0790     2.9469     3.5058 C.ar    
  28 C28            2.4893     2.9852     2.2553 C.ar    
  29 C29            2.5521     1.8879     1.4220 C.ar    
  30 C30            3.2112     0.7319     1.8332 C.ar    
  31 O31            4.4342    -2.4859     1.6254 O.2     
  32 C32            1.2359    -1.2762    -4.9384 C.ar    
  33 C33            0.5976    -1.7091    -6.0962 C.ar    
  34 C34            1.1553    -1.4395    -7.3323 C.ar    
  35 C35            2.3460    -0.7411    -7.4173 C.ar    
  36 C36            2.9823    -0.3104    -6.2680 C.ar    
  37 C37            2.4276    -0.5708    -5.0295 C.ar    
  38 C38            4.2800     0.4494    -6.3663 C.3     
  39 F39           -0.5651    -2.3921    -6.0128 F       
  40 H40            1.4796    -1.3346     2.0590 H       
  41 H41           -0.8446    -2.1275     2.2084 H       
  42 H42           -2.1560    -2.5150     0.1637 H       
  43 H43           -1.1531    -2.0996    -2.0436 H       
  44 H44           -0.2047    -1.9515    -3.6245 H       
  45 H45            3.5280    -1.5591    -0.6180 H       
  46 H46            2.9472     0.1162    -0.7739 H       
  47 H47            1.1714    -2.6243     8.3066 H       
  48 H48            1.2653    -4.4103     8.1858 H       
  49 H49            5.4922    -2.0688     7.3218 H       
  50 H50            1.9097    -2.0299     3.9345 H       
  51 H51            6.3280     0.3803     3.1685 H       
  52 H52            6.4479    -1.4032     3.0028 H       
  53 H53            4.1964     1.7703     4.8988 H       
  54 H54            3.0275     3.8083     4.1551 H       
  55 H55            1.9768     3.8784     1.9299 H       
  56 H56            2.0887     1.9252     0.4472 H       
  57 H57            0.6610    -1.7749    -8.2320 H       
  58 H58            2.7801    -0.5319    -8.3839 H       
  59 H59            2.9236    -0.2298    -4.1327 H       
  60 H60            4.0717     1.5172    -6.4330 H       
  61 H61            4.8847     0.2518    -5.4812 H       
  62 H62            4.8223     0.1287    -7.2558 H       
@<TRIPOS>BOND
   1    1    2 1
   2    1    8 2
   3    1    9 am
   4    2    3 ar
   5    2    7 ar
   6    3    4 ar
   7    3   10 1
   8    4    5 ar
   9    4   40 1
  10    5    6 ar
  11    5   41 1
  12    6    7 ar
  13    6   42 1
  14    7   43 1
  15    9   32 1
  16    9   44 1
  17   10   23 1
  18   10   45 1
  19   10   46 1
  20   11   12 1
  21   11   15 1
  22   12   13 1
  23   12   47 1
  24   12   48 1
  25   13   14 1
  26   14   15 ar
  27   14   16 ar
  28   15   19 ar
  29   16   17 ar
  30   16   49 1
  31   17   18 ar
  32   17   20 1
  33   18   19 ar
  34   18   21 1
  35   19   50 1
  36   20   22 1
  37   21   22 1
  38   21   24 1
  39   21   25 1
  40   22   51 1
  41   22   52 1
  42   23   24 am
  43   23   30 1
  44   24   31 2
  45   25   26 ar
  46   25   30 ar
  47   26   27 ar
  48   26   53 1
  49   27   28 ar
  50   27   54 1
  51   28   29 ar
  52   28   55 1
  53   29   30 ar
  54   29   56 1
  55   32   33 ar
  56   32   37 ar
  57   33   34 ar
  58   33   39 1
  59   34   35 ar
  60   34   57 1
  61   35   36 ar
  62   35   58 1
  63   36   37 ar
  64   36   38 1
  65   37   59 1
  66   38   60 1
  67   38   61 1
  68   38   62 1

#	End of record

