#	Name: ASD01870433
#	Creating user name:	WinNT
#	Creation time:	15. 06. 2019 19:39

#	Modifying user name:	WinNT
#	Modification time:	15. 06. 2019 19:39

#	Program:	/corina/corina34_cracker 3.40 0067  02.08.2006

@<TRIPOS>MOLECULE
ASD01870433
  59   63    0    0    0
SMALL
NO_CHARGES


@<TRIPOS>ATOM
   1 N1             1.8004     0.7769     0.4451 N.am    
   2 C2             1.5073    -0.5372     0.3855 C.2     
   3 C3             0.0736    -0.9846     0.2611 C.3     
   4 O4             2.3973    -1.3598     0.4320 O.2     
   5 C5            -0.0960    -2.5136     0.2052 C.3     
   6 N6            -1.2451    -2.3187     1.1105 N.am    
   7 C7            -0.6738    -1.0512     1.6054 C.3     
   8 S8            -2.6224    -3.1774     1.4391 S.o2    
   9 C9            -2.2439    -4.2871     2.7544 C.ar    
  10 C10           -1.7613    -5.5524     2.4725 C.ar    
  11 O11           -3.5619    -2.2459     1.9578 O.2     
  12 O12           -2.8760    -3.9821     0.2956 O.2     
  13 C13           -2.4242    -3.8900     4.0636 C.ar    
  14 C14           -2.1240    -4.7697     5.1037 C.ar    
  15 C15           -1.6430    -6.0466     4.8127 C.ar    
  16 C16           -1.4617    -6.4296     3.4998 C.ar    
  17 C17            3.1927     1.2350     0.5665 C.3     
  18 C18            3.4567     2.2833    -0.5196 C.3     
  19 N19            2.4439     3.3434    -0.4291 N.3     
  20 C20            1.0972     2.8173    -0.6888 C.3     
  21 C21            0.7369     1.7911     0.3842 C.3     
  22 C22            2.7435     4.3944    -1.2907 C.ar    
  23 C23            1.9144     5.5131    -1.3702 C.ar    
  24 C24            3.8838     4.3589    -2.0932 C.ar    
  25 C25            4.1448     5.4205    -2.9336 C.ar    
  26 N26            3.3322     6.4595    -2.9840 N.ar    
  27 C27            2.2466     6.5331    -2.2367 C.ar    
  28 C28           -2.3145    -4.3502     6.5099 C.2     
  29 N29           -2.4473    -5.1739     7.5875 N.pl3   
  30 N30           -2.6065    -4.3688     8.7227 N.2     
  31 C31           -2.5719    -3.1144     8.3505 C.2     
  32 C32           -2.3840    -3.0652     6.9691 C.2     
  33 C33           -2.4276    -6.6386     7.5630 C.3     
  34 H34           -0.4710    -0.4538    -0.5198 H       
  35 H35           -0.3718    -2.8893    -0.7801 H       
  36 H36            0.7299    -3.0640     0.6559 H       
  37 H37           -0.0176    -1.1719     2.4673 H       
  38 H38           -1.4109    -0.2592     1.7379 H       
  39 H39           -1.6181    -5.8571     1.4463 H       
  40 H40           -2.7965    -2.9002     4.2826 H       
  41 H41           -1.4089    -6.7322     5.6136 H       
  42 H42           -1.0895    -7.4178     3.2732 H       
  43 H43            3.3475     1.6795     1.5497 H       
  44 H44            3.8690     0.3907     0.4326 H       
  45 H45            4.4478     2.7139    -0.3763 H       
  46 H46            3.4030     1.8118    -1.5009 H       
  47 H47            0.3769     3.6352    -0.6682 H       
  48 H48            1.0763     2.3384    -1.6677 H       
  49 H49           -0.2109     1.3154     0.1324 H       
  50 H50            0.6556     2.2863     1.3518 H       
  51 H51            1.0245     5.5795    -0.7618 H       
  52 H52            4.5530     3.5121    -2.0565 H       
  53 H53            5.0256     5.4019    -3.5583 H       
  54 H54            1.6080     7.4011    -2.3082 H       
  55 H55           -2.6681    -2.2601     9.0043 H       
  56 H56           -2.3136    -2.1705     6.3683 H       
  57 H57           -1.3956    -6.9885     7.5884 H       
  58 H58           -2.9632    -7.0238     8.4307 H       
  59 H59           -2.9092    -6.9933     6.6518 H       
@<TRIPOS>BOND
   1    1    2 am
   2    1   17 1
   3    1   21 1
   4    2    3 1
   5    2    4 2
   6    3    5 1
   7    3    7 1
   8    3   34 1
   9    5    6 1
  10    5   35 1
  11    5   36 1
  12    6    7 1
  13    6    8 am
  14    7   37 1
  15    7   38 1
  16    8    9 1
  17    8   11 2
  18    8   12 2
  19    9   13 ar
  20    9   10 ar
  21   10   16 ar
  22   10   39 1
  23   13   14 ar
  24   13   40 1
  25   14   15 ar
  26   14   28 1
  27   15   16 ar
  28   15   41 1
  29   16   42 1
  30   17   18 1
  31   17   43 1
  32   17   44 1
  33   18   19 1
  34   18   45 1
  35   18   46 1
  36   19   20 1
  37   19   22 1
  38   20   21 1
  39   20   47 1
  40   20   48 1
  41   21   49 1
  42   21   50 1
  43   22   23 ar
  44   22   24 ar
  45   23   27 ar
  46   23   51 1
  47   24   25 ar
  48   24   52 1
  49   25   26 ar
  50   25   53 1
  51   26   27 ar
  52   27   54 1
  53   28   29 1
  54   28   32 2
  55   29   30 1
  56   29   33 1
  57   30   31 2
  58   31   32 1
  59   31   55 1
  60   32   56 1
  61   33   57 1
  62   33   58 1
  63   33   59 1

#	End of record

