#	Name: ASD03080121
#	Creating user name:	WinNT
#	Creation time:	15. 06. 2019 20:26

#	Modifying user name:	WinNT
#	Modification time:	15. 06. 2019 20:26

#	Program:	/corina/corina34_cracker 3.40 0067  02.08.2006

@<TRIPOS>MOLECULE
ASD03080121
  34   36    0    0    0
SMALL
NO_CHARGES


@<TRIPOS>ATOM
   1 C1            -0.0173     1.4248     0.0099 C.3     
   2 O2             0.0021    -0.0041     0.0020 O.3     
   3 C3             0.6258    -0.6184     1.0415 C.ar    
   4 C4             1.2066     0.1395     2.0472 C.ar    
   5 C5             1.8436    -0.4867     3.1080 C.ar    
   6 O6             2.4130     0.2566     4.0930 O.3     
   7 C7             2.3173     1.6772     3.9714 C.3     
   8 C8             1.8994    -1.8710     3.1640 C.ar    
   9 C9             1.3180    -2.6299     2.1580 C.ar    
  10 C10            0.6764    -2.0028     1.0991 C.ar    
  11 N11            1.3741    -4.0297     2.2142 N.pl3   
  12 N12            1.9358    -4.7155     3.1476 N.2     
  13 N13            1.8011    -5.9709     2.8841 N.2     
  14 C14            1.1228    -6.0651     1.7314 C.2     
  15 N15            0.8665    -4.8315     1.3422 N.2     
  16 C16            0.7315    -7.3147     1.0323 C.ar    
  17 C17            1.0668    -8.5614     1.5661 C.ar    
  18 C18            0.6785    -9.6973     0.8760 C.ar    
  19 C19           -0.0222    -9.5626    -0.3083 C.ar    
  20 N20           -0.3242    -8.3714    -0.7879 N.ar    
  21 C21            0.0190    -7.2633    -0.1638 C.ar    
  22 H22            1.0053     1.8021     0.0021 H       
  23 H23           -0.5445     1.7859    -0.8732 H       
  24 H24           -0.5275     1.7763     0.9067 H       
  25 H25            1.1631     1.2178     2.0042 H       
  26 H26            2.8112     2.1486     4.8211 H       
  27 H27            2.8001     1.9961     3.0477 H       
  28 H28            1.2676     1.9704     3.9528 H       
  29 H29            2.3956    -2.3585     3.9902 H       
  30 H30            0.2235    -2.5929     0.3162 H       
  31 H31            1.6153    -8.6373     2.4933 H       
  32 H32            0.9205   -10.6778     1.2585 H       
  33 H33           -0.3268   -10.4463    -0.8493 H       
  34 H34           -0.2461    -6.3061    -0.5879 H       
@<TRIPOS>BOND
   1    1    2 1
   2    1   22 1
   3    1   23 1
   4    1   24 1
   5    2    3 1
   6    3    4 ar
   7    3   10 ar
   8    4    5 ar
   9    4   25 1
  10    5    6 1
  11    5    8 ar
  12    6    7 1
  13    7   26 1
  14    7   27 1
  15    7   28 1
  16    8    9 ar
  17    8   29 1
  18    9   10 ar
  19    9   11 1
  20   10   30 1
  21   11   12 1
  22   11   15 1
  23   12   13 2
  24   13   14 1
  25   14   15 2
  26   14   16 1
  27   16   17 ar
  28   16   21 ar
  29   17   18 ar
  30   17   31 1
  31   18   19 ar
  32   18   32 1
  33   19   20 ar
  34   19   33 1
  35   20   21 ar
  36   21   34 1

#	End of record

