#	Name: ASD05130087
#	Creating user name:	WinNT
#	Creation time:	15. 06. 2019 20:56

#	Modifying user name:	WinNT
#	Modification time:	15. 06. 2019 20:56

#	Program:	/corina/corina34_cracker 3.40 0067  02.08.2006

@<TRIPOS>MOLECULE
ASD05130087
  57   60    0    0    0
SMALL
NO_CHARGES


@<TRIPOS>ATOM
   1 C1            -2.2711     1.4530     0.1145 C.2     
   2 C2            -2.2398    -0.0536     0.1190 C.3     
   3 O3            -3.3337     2.0375     0.1238 O.2     
   4 N4            -1.1182     2.1510     0.1057 N.am    
   5 C5            -3.6171    -0.5730     0.1352 C.1     
   6 N6            -4.6799    -0.9738     0.1477 N.1     
   7 N7             1.1497     6.3886     0.0784 N.am    
   8 C8             1.1001     7.7308    -0.0308 C.2     
   9 C9            -0.1812     8.4066    -0.2498 C.2     
  10 C10           -1.3275     7.6659    -0.3427 C.2     
  11 C11           -1.2489     6.2575    -0.2245 C.ar    
  12 C12           -2.3968     5.4602    -0.3128 C.ar    
  13 N13           -2.3059     4.1530    -0.2017 N.ar    
  14 C14           -1.1453     3.5382    -0.0036 C.ar    
  15 C15            0.0396     4.2511     0.0969 C.ar    
  16 C16            0.0013     5.6369    -0.0138 C.ar    
  17 O17            2.1244     8.3847     0.0532 O.2     
  18 C18            2.4379     5.7241     0.2913 C.3     
  19 C19            2.7071     5.6024     1.7925 C.3     
  20 C20           -0.2350     9.8824    -0.3694 C.ar    
  21 C21            0.2000    10.5057    -1.5398 C.ar    
  22 C22            0.1486    11.8814    -1.6497 C.ar    
  23 C23           -0.3333    12.6454    -0.6010 C.ar    
  24 C24           -0.7688    12.0313     0.5691 C.ar    
  25 C25           -0.7257    10.6512     0.6845 C.ar    
  26 N26           -1.2560    12.8081     1.6285 N.am    
  27 C27           -2.2619    12.3450     2.3967 C.2     
  28 O28           -2.6913    11.2207     2.2233 O.2     
  29 N29           -2.7920    13.1281     3.3570 N.am    
  30 C30           -3.7701    12.6159     4.2167 C.ar    
  31 C31           -3.8135    13.0243     5.5433 C.ar    
  32 C32           -4.7805    12.5173     6.3891 C.ar    
  33 C33           -5.7048    11.6040     5.9163 C.ar    
  34 C34           -5.6640    11.1950     4.5960 C.ar    
  35 C35           -4.7031    11.7025     3.7436 C.ar    
  36 F36           -0.3805    13.9909    -0.7137 F       
  37 Br37           0.8604     9.4667    -2.9751 Br      
  38 H38           -1.7279    -0.4091    -0.7753 H       
  39 H39           -1.7092    -0.4034     1.0046 H       
  40 H40           -0.2695     1.6865     0.1756 H       
  41 H41           -2.2798     8.1493    -0.5036 H       
  42 H42           -3.3604     5.9206    -0.4738 H       
  43 H43            0.9766     3.7389     0.2587 H       
  44 H44            2.4120     4.7300    -0.1550 H       
  45 H45            3.2304     6.3106    -0.1736 H       
  46 H46            3.6655     5.1080     1.9508 H       
  47 H47            2.7329     6.5965     2.2388 H       
  48 H48            1.9145     5.0159     2.2573 H       
  49 H49            0.4856    12.3623    -2.5561 H       
  50 H50           -1.0675    10.1727     1.5904 H       
  51 H51           -0.8693    13.6791     1.8091 H       
  52 H52           -2.4954    14.0467     3.4523 H       
  53 H53           -3.0916    13.7373     5.9133 H       
  54 H54           -4.8145    12.8343     7.4210 H       
  55 H55           -6.4600    11.2090     6.5797 H       
  56 H56           -6.3872    10.4812     4.2298 H       
  57 H57           -4.6748    11.3864     2.7113 H       
@<TRIPOS>BOND
   1    1    2 1
   2    1    3 2
   3    1    4 am
   4    2    5 1
   5    2   38 1
   6    2   39 1
   7    4   14 1
   8    4   40 1
   9    5    6 3
  10    7    8 am
  11    7   16 1
  12    7   18 1
  13    8    9 1
  14    8   17 2
  15    9   10 2
  16    9   20 1
  17   10   11 1
  18   10   41 1
  19   11   12 ar
  20   11   16 ar
  21   12   13 ar
  22   12   42 1
  23   13   14 ar
  24   14   15 ar
  25   15   16 ar
  26   15   43 1
  27   18   19 1
  28   18   44 1
  29   18   45 1
  30   19   46 1
  31   19   47 1
  32   19   48 1
  33   20   21 ar
  34   20   25 ar
  35   21   22 ar
  36   21   37 1
  37   22   23 ar
  38   22   49 1
  39   23   24 ar
  40   23   36 1
  41   24   25 ar
  42   24   26 1
  43   25   50 1
  44   26   27 am
  45   26   51 1
  46   27   28 2
  47   27   29 am
  48   29   30 1
  49   29   52 1
  50   30   31 ar
  51   30   35 ar
  52   31   32 ar
  53   31   53 1
  54   32   33 ar
  55   32   54 1
  56   33   34 ar
  57   33   55 1
  58   34   35 ar
  59   34   56 1
  60   35   57 1

#	End of record

