#	Name: ASD09080102
#	Creating user name:	WinNT
#	Creation time:	15. 06. 2019 21:20

#	Modifying user name:	WinNT
#	Modification time:	15. 06. 2019 21:20

#	Program:	/corina/corina34_cracker 3.40 0067  02.08.2006

@<TRIPOS>MOLECULE
ASD09080102
  35   35    0    0    0
SMALL
NO_CHARGES


@<TRIPOS>ATOM
   1 C1            -0.0167     1.3790     0.0096 C.ar    
   2 C2             0.0021    -0.0041     0.0020 C.ar    
   3 C3            -1.1855    -0.7112     0.0100 C.ar    
   4 C4            -2.3919    -0.0363     0.0257 C.ar    
   5 C5            -2.4112     1.3459     0.0333 C.ar    
   6 C6            -1.2240     2.0538     0.0306 C.ar    
   7 Br7            1.6078     2.3470    -0.0007 Br      
   8 C8            -3.6865    -0.8078     0.0339 C.3     
   9 C9            -4.1105    -1.0770     1.4791 C.3     
  10 N10           -4.4119     0.1930     2.1443 N.am    
  11 C11           -4.3143     0.2913     3.4849 C.2     
  12 O12           -3.9770    -0.6716     4.1406 O.2     
  13 C13           -4.6243     1.5977     4.1692 C.3     
  14 O14           -4.4496     1.4498     5.5798 O.3     
  15 C15           -4.7199     2.6377     6.3266 C.3     
  16 C16           -5.3373    -1.9522     1.4879 C.2     
  17 O17           -6.3586    -1.5558     1.9975 O.2     
  18 O18           -5.2954    -3.1722     0.9296 O.3     
  19 C19           -6.5143    -3.9600     0.9748 C.3     
  20 H20            0.9445    -0.5314    -0.0105 H       
  21 H21           -1.1710    -1.7911     0.0037 H       
  22 H22           -3.3539     1.8727     0.0455 H       
  23 H23           -1.2391     3.1337     0.0365 H       
  24 H24           -4.4591    -0.2263    -0.4691 H       
  25 H25           -3.5481    -1.7553    -0.4867 H       
  26 H26           -3.3010    -1.5808     2.0074 H       
  27 H27           -4.6817     0.9631     1.6199 H       
  28 H28           -3.9509     2.3706     3.7988 H       
  29 H29           -5.6552     1.8825     3.9586 H       
  30 H30           -4.0485     3.4323     6.0009 H       
  31 H31           -5.7527     2.9441     6.1608 H       
  32 H32           -4.5645     2.4430     7.3878 H       
  33 H33           -6.8033    -4.1229     2.0131 H       
  34 H34           -7.3107    -3.4273     0.4552 H       
  35 H35           -6.3438    -4.9213     0.4900 H       
@<TRIPOS>BOND
   1    1    2 ar
   2    1    7 1
   3    1    6 ar
   4    2    3 ar
   5    2   20 1
   6    3    4 ar
   7    3   21 1
   8    4    5 ar
   9    4    8 1
  10    5    6 ar
  11    5   22 1
  12    6   23 1
  13    8    9 1
  14    8   24 1
  15    8   25 1
  16    9   10 1
  17    9   16 1
  18    9   26 1
  19   10   11 am
  20   10   27 1
  21   11   12 2
  22   11   13 1
  23   13   14 1
  24   13   28 1
  25   13   29 1
  26   14   15 1
  27   15   30 1
  28   15   31 1
  29   15   32 1
  30   16   17 2
  31   16   18 1
  32   18   19 1
  33   19   33 1
  34   19   34 1
  35   19   35 1

#	End of record

