#	Name: ASD03240707
#	Creating user name:	WinNT
#	Creation time:	15. 06. 2019 20:35

#	Modifying user name:	WinNT
#	Modification time:	15. 06. 2019 20:35

#	Program:	/corina/corina34_cracker 3.40 0067  02.08.2006

@<TRIPOS>MOLECULE
ASD03240707
  68   73    0    0    0
SMALL
NO_CHARGES


@<TRIPOS>ATOM
   1 C1            -0.6424     1.7223     0.1005 C.3     
   2 C2            -0.3698     0.2228    -0.0340 C.3     
   3 N3            -1.4614    -1.9990    -0.1071 N.3     
   4 C4            -1.6767    -0.5515     0.1488 C.3     
   5 C5            -2.1430    -0.4815     1.6188 C.3     
   6 C6            -2.7398    -1.8724     1.9167 C.3     
   7 C7            -2.5839    -2.6658     0.6016 C.3     
   8 C8            -1.5001    -2.2906    -1.5464 C.3     
   9 N9             0.5976     2.4697    -0.1481 N.3     
  10 C10            0.3735     3.9165    -0.0273 C.3     
  11 C11            1.6647     4.6483    -0.2885 C.ar    
  12 C12            1.9870     5.0389    -1.5759 C.ar    
  13 C13            3.1675     5.7096    -1.8214 C.ar    
  14 C14            4.0367     5.9938    -0.7681 C.ar    
  15 C15            3.7061     5.5974     0.5278 C.ar    
  16 C16            2.5202     4.9319     0.7612 C.ar    
  17 C17            8.9475     7.5353    -3.8681 C.2     
  18 N18            9.4796     8.4123    -2.9985 N.2     
  19 C19            8.9063     8.6917    -1.8564 C.2     
  20 C20            7.6482     8.0320    -1.5133 C.ar    
  21 C21            7.0951     7.1123    -2.4299 C.ar    
  22 N22            7.7731     6.8810    -3.6114 N.pl3   
  23 C23            6.9876     8.2894    -0.3077 C.ar    
  24 C24            5.7951     7.6164    -0.0617 C.ar    
  25 C25            5.3056     6.7130    -1.0247 C.ar    
  26 N26            5.9593     6.4951    -2.1561 N.ar    
  27 N27            7.4981     6.0487    -4.7032 N.2     
  28 C28            8.4556     6.1834    -5.5891 C.2     
  29 C29            9.3862     7.0969    -5.1102 C.2     
  30 C30            5.0492     7.8470     1.1988 C.ar    
  31 C31            5.7086     7.7762     2.4249 C.ar    
  32 C32            5.0093     7.9923     3.5948 C.ar    
  33 C33            3.6565     8.2782     3.5524 C.ar    
  34 C34            2.9968     8.3493     2.3387 C.ar    
  35 C35            3.6871     8.1412     1.1619 C.ar    
  36 C36            8.5363     5.4607    -6.9090 C.3     
  37 H37           -1.3984     2.0208    -0.6259 H       
  38 H38           -1.0008     1.9376     1.1071 H       
  39 H39            0.0403     0.0153    -1.0223 H       
  40 H40            0.3453    -0.0862     0.7284 H       
  41 H41           -2.4466    -0.1585    -0.5153 H       
  42 H42           -1.2958    -0.2844     2.2757 H       
  43 H43           -2.9034     0.2903     1.7384 H       
  44 H44           -2.1856    -2.3581     2.7198 H       
  45 H45           -3.7932    -1.7834     2.1825 H       
  46 H46           -3.4973    -2.6041     0.0098 H       
  47 H47           -2.3360    -3.7061     0.8123 H       
  48 H48           -0.6594    -1.8019    -2.0388 H       
  49 H49           -1.4354    -3.3677    -1.7007 H       
  50 H50           -2.4341    -1.9186    -1.9675 H       
  51 H51            1.3337     2.1649     0.4709 H       
  52 H52           -0.3754     4.2301    -0.7546 H       
  53 H53            0.0221     4.1470     0.9784 H       
  54 H54            1.3133     4.8180    -2.3907 H       
  55 H55            3.4181     6.0137    -2.8269 H       
  56 H56            4.3753     5.8142     1.3473 H       
  57 H57            2.2612     4.6280     1.7647 H       
  58 H58            9.3563     9.4001    -1.1767 H       
  59 H59            7.3909     8.9884     0.4101 H       
  60 H60           10.2881     7.4112    -5.6144 H       
  61 H61            6.7646     7.5524     2.4592 H       
  62 H62            5.5191     7.9377     4.5454 H       
  63 H63            3.1132     8.4462     4.4706 H       
  64 H64            1.9405     8.5725     2.3116 H       
  65 H65            3.1720     8.2014     0.2146 H       
  66 H66            8.0333     6.0488    -7.6766 H       
  67 H67            9.5818     5.3223    -7.1842 H       
  68 H68            8.0520     4.4881    -6.8209 H       
@<TRIPOS>BOND
   1    1    2 1
   2    1    9 1
   3    1   37 1
   4    1   38 1
   5    2    4 1
   6    2   39 1
   7    2   40 1
   8    3    4 1
   9    3    7 1
  10    3    8 1
  11    4    5 1
  12    4   41 1
  13    5    6 1
  14    5   42 1
  15    5   43 1
  16    6    7 1
  17    6   44 1
  18    6   45 1
  19    7   46 1
  20    7   47 1
  21    8   48 1
  22    8   49 1
  23    8   50 1
  24    9   10 1
  25    9   51 1
  26   10   11 1
  27   10   52 1
  28   10   53 1
  29   11   12 ar
  30   11   16 ar
  31   12   13 ar
  32   12   54 1
  33   13   14 ar
  34   13   55 1
  35   14   15 ar
  36   14   25 1
  37   15   16 ar
  38   15   56 1
  39   16   57 1
  40   17   18 1
  41   17   22 1
  42   17   29 2
  43   18   19 2
  44   19   20 1
  45   19   58 1
  46   20   21 ar
  47   20   23 ar
  48   21   22 1
  49   21   26 ar
  50   22   27 1
  51   23   24 ar
  52   23   59 1
  53   24   25 ar
  54   24   30 1
  55   25   26 ar
  56   27   28 2
  57   28   29 1
  58   28   36 1
  59   29   60 1
  60   30   31 ar
  61   30   35 ar
  62   31   32 ar
  63   31   61 1
  64   32   33 ar
  65   32   62 1
  66   33   34 ar
  67   33   63 1
  68   34   35 ar
  69   34   64 1
  70   35   65 1
  71   36   66 1
  72   36   67 1
  73   36   68 1

#	End of record

