#	Name: ASD00170322
#	Creating user name:	WinNT
#	Creation time:	15. 06. 2019 18:31

#	Modifying user name:	WinNT
#	Modification time:	15. 06. 2019 18:31

#	Program:	/corina/corina34_cracker 3.40 0067  02.08.2006

@<TRIPOS>MOLECULE
ASD00170322
  44   45    0    0    0
SMALL
NO_CHARGES


@<TRIPOS>ATOM
   1 N1            -0.0179     1.4667     0.0101 N.am    
   2 C2             0.0021    -0.0041     0.0020 C.3     
   3 C3            -0.5991    -0.5121     1.3147 C.3     
   4 C4            -1.8858     0.2455     1.6003 C.2     
   5 C5            -2.2032     1.4140     1.0339 C.2     
   6 C6            -1.3273     2.1371     0.0324 C.3     
   7 C7            -2.9113    -0.2172     2.5213 C.2     
   8 C8            -3.9777     0.6361     2.6184 C.2     
   9 S9            -3.7579     1.9901     1.6100 S.3     
  10 N10           -5.0805     0.4268     3.4234 N.pl3   
  11 C11           -2.8138    -1.4702     3.2692 C.2     
  12 C12            1.1271     2.1776     0.0030 C.2     
  13 O13           -3.3002    -2.6116     2.7394 O.3     
  14 O14           -2.2941    -1.4832     4.3692 O.2     
  15 C15           -3.1711    -3.7981     3.5252 C.3     
  16 C16           -3.7751    -4.9810     2.7657 C.3     
  17 O17            1.0841     3.5233     0.0106 O.3     
  18 O18            2.1983     1.6041    -0.0103 O.2     
  19 C19            2.3560     4.2235     0.0022 C.3     
  20 C20            3.1387     3.8444    -1.2566 C.3     
  21 C21            2.1072     5.7331     0.0127 C.3     
  22 C22            3.1625     3.8310     1.2418 C.3     
  23 H23           -0.5879    -0.3729    -0.8370 H       
  24 H24            1.0300    -0.3551    -0.0891 H       
  25 H25           -0.8149    -1.5771     1.2285 H       
  26 H26            0.1086    -0.3475     2.1273 H       
  27 H27           -1.2079     3.1788     0.3301 H       
  28 H28           -1.7782     2.0845    -0.9586 H       
  29 H29           -5.1360    -0.3711     3.9722 H       
  30 H30           -5.7994     1.0778     3.4400 H       
  31 H31           -2.1163    -3.9919     3.7200 H       
  32 H32           -3.6971    -3.6667     4.4708 H       
  33 H33           -3.6766    -5.8861     3.3651 H       
  34 H34           -4.8299    -4.7872     2.5709 H       
  35 H35           -3.2491    -5.1124     1.8201 H       
  36 H36            2.5641     4.1241    -2.1396 H       
  37 H37            4.0935     4.3701    -1.2629 H       
  38 H38            3.3159     2.7689    -1.2640 H       
  39 H39            1.5496     6.0032     0.9095 H       
  40 H40            3.0620     6.2588     0.0064 H       
  41 H41            1.5326     6.0128    -0.8703 H       
  42 H42            3.3398     2.7555     1.2343 H       
  43 H43            4.1174     4.3567     1.2355 H       
  44 H44            2.6050     4.1011     2.1386 H       
@<TRIPOS>BOND
   1    1    2 1
   2    1   12 am
   3    1    6 1
   4    2    3 1
   5    2   23 1
   6    2   24 1
   7    3    4 1
   8    3   25 1
   9    3   26 1
  10    4    5 2
  11    4    7 1
  12    5    6 1
  13    5    9 1
  14    6   27 1
  15    6   28 1
  16    7    8 2
  17    7   11 1
  18    8    9 1
  19    8   10 1
  20   10   29 1
  21   10   30 1
  22   11   13 1
  23   11   14 2
  24   12   17 1
  25   12   18 2
  26   13   15 1
  27   15   16 1
  28   15   31 1
  29   15   32 1
  30   16   33 1
  31   16   34 1
  32   16   35 1
  33   17   19 1
  34   19   20 1
  35   19   21 1
  36   19   22 1
  37   20   36 1
  38   20   37 1
  39   20   38 1
  40   21   39 1
  41   21   40 1
  42   21   41 1
  43   22   42 1
  44   22   43 1
  45   22   44 1

#	End of record

