#	Name: ASD03740067
#	Creating user name:	WinNT
#	Creation time:	15. 06. 2019 20:46

#	Modifying user name:	WinNT
#	Modification time:	15. 06. 2019 20:46

#	Program:	/corina/corina34_cracker 3.40 0067  02.08.2006

@<TRIPOS>MOLECULE
ASD03740067
  57   60    0    0    0
SMALL
NO_CHARGES


@<TRIPOS>ATOM
   1 C1             0.0336     1.3423     0.1713 C.ar    
   2 C2             0.0613    -0.0428     0.2729 C.ar    
   3 C3             1.2485    -0.7166     0.3309 C.ar    
   4 C4             2.4485    -0.0113     0.2876 C.ar    
   5 C5             2.4220     1.3930     0.1841 C.ar    
   6 C6             1.1945     2.0597     0.1269 C.ar    
   7 N7             3.7678    -0.3806     0.3241 N.pl3   
   8 N8             4.5676     0.7640     0.2456 N.2     
   9 C9             3.8179     1.8292     0.1620 C.2     
  10 O10            4.2557     3.1128     0.0703 O.3     
  11 C11            4.2618    -1.7558     0.4295 C.3     
  12 C12            4.4410    -2.3324    -0.9512 C.ar    
  13 C13            5.6700     3.3172     0.0654 C.3     
  14 C14            5.9686     4.8138    -0.0431 C.3     
  15 C15            7.4766     5.0429     0.0770 C.3     
  16 C16            5.6504    -2.1936    -1.6063 C.ar    
  17 C17            5.8154    -2.7222    -2.8727 C.ar    
  18 C18            4.7698    -3.3904    -3.4847 C.ar    
  19 C19            3.5597    -3.5290    -2.8285 C.ar    
  20 C20            3.3978    -3.0049    -1.5599 C.ar    
  21 N21            7.9246     4.6597     1.4225 N.3     
  22 Cl22           4.9761    -4.0541    -5.0755 Cl      
  23 C23            5.4797     5.3347    -1.3960 C.3     
  24 C24            7.3437     5.5523     2.4488 C.3     
  25 C25            8.3976     5.7081     3.5607 C.3     
  26 C26            9.6123     4.8787     3.0848 C.3     
  27 C27            9.3977     4.7979     1.5525 C.3     
  28 C28           10.1083     3.5737     0.9716 C.3     
  29 O29            9.6947     2.4028     1.6786 O.3     
  30 H30           -0.9150     1.8563     0.1226 H       
  31 H31           -0.8670    -0.5938     0.3069 H       
  32 H32            1.2563    -1.7936     0.4106 H       
  33 H33            1.1646     3.1363     0.0471 H       
  34 H34            5.2186    -1.7592     0.9517 H       
  35 H35            3.5429    -2.3586     0.9845 H       
  36 H36            6.0966     2.9276     0.9897 H       
  37 H37            6.1094     2.7964    -0.7854 H       
  38 H38            5.4554     5.3457     0.7580 H       
  39 H39            7.9964     4.4372    -0.6653 H       
  40 H40            7.6988     6.0963    -0.0936 H       
  41 H41            6.4664    -1.6716    -1.1287 H       
  42 H42            6.7601    -2.6133    -3.3845 H       
  43 H43            2.7432    -4.0505    -3.3057 H       
  44 H44            2.4532    -3.1130    -1.0476 H       
  45 H45            6.0545     4.8663    -2.1950 H       
  46 H46            4.4239     5.0933    -1.5183 H       
  47 H47            5.6125     6.4158    -1.4387 H       
  48 H48            7.1193     6.5250     2.0109 H       
  49 H49            6.4361     5.1076     2.8570 H       
  50 H50            8.6759     6.7558     3.6741 H       
  51 H51            8.0154     5.3134     4.5022 H       
  52 H52           10.5451     5.3926     3.3171 H       
  53 H53            9.5979     3.8835     3.5293 H       
  54 H54            9.7429     5.7107     1.0670 H       
  55 H55            9.8517     3.4711    -0.0828 H       
  56 H56           11.1865     3.6974     1.0728 H       
  57 H57           10.1064     1.5867     1.3629 H       
@<TRIPOS>BOND
   1    1    2 ar
   2    1    6 ar
   3    1   30 1
   4    2    3 ar
   5    2   31 1
   6    3    4 ar
   7    3   32 1
   8    4    5 ar
   9    4    7 1
  10    5    6 ar
  11    5    9 1
  12    6   33 1
  13    7    8 1
  14    7   11 1
  15    8    9 2
  16    9   10 1
  17   10   13 1
  18   11   12 1
  19   11   34 1
  20   11   35 1
  21   12   16 ar
  22   12   20 ar
  23   13   14 1
  24   13   36 1
  25   13   37 1
  26   14   23 1
  27   14   15 1
  28   14   38 1
  29   15   21 1
  30   15   39 1
  31   15   40 1
  32   16   17 ar
  33   16   41 1
  34   17   18 ar
  35   17   42 1
  36   18   19 ar
  37   18   22 1
  38   19   20 ar
  39   19   43 1
  40   20   44 1
  41   21   24 1
  42   21   27 1
  43   23   45 1
  44   23   46 1
  45   23   47 1
  46   24   25 1
  47   24   48 1
  48   24   49 1
  49   25   26 1
  50   25   50 1
  51   25   51 1
  52   26   27 1
  53   26   52 1
  54   26   53 1
  55   27   28 1
  56   27   54 1
  57   28   29 1
  58   28   55 1
  59   28   56 1
  60   29   57 1

#	End of record

