#	Name: ASD01001040
#	Creating user name:	WinNT
#	Creation time:	15. 06. 2019 18:55

#	Modifying user name:	WinNT
#	Modification time:	15. 06. 2019 18:55

#	Program:	/corina/corina34_cracker 3.40 0067  02.08.2006

@<TRIPOS>MOLECULE
ASD01001040
  47   49    0    0    0
SMALL
NO_CHARGES


@<TRIPOS>ATOM
   1 C1             0.1494     0.8212    -0.2505 C.ar    
   2 C2             0.3531    -0.4127    -0.8401 C.ar    
   3 C3             1.2280     1.6365     0.0364 C.ar    
   4 C4             1.6352    -0.8308    -1.1426 C.ar    
   5 C5             2.5105     1.2182    -0.2663 C.ar    
   6 C6             2.7141    -0.0151    -0.8561 C.ar    
   7 C7             3.6865     2.1076     0.0456 C.3     
   8 C8             3.2575     3.5505    -0.0245 C.ar    
   9 C9             4.1945     1.8013     1.4309 C.ar    
  10 S10            5.0068     1.8099    -1.1622 S.3     
  11 C11            3.4607     4.3854     1.0583 C.ar    
  12 C12            2.6659     4.0407    -1.1737 C.ar    
  13 C13            3.3565     1.9423     2.5213 C.ar    
  14 C14            5.4967     1.3739     1.6107 C.ar    
  15 C15            6.2367     3.0755    -0.7424 C.3     
  16 C16            3.0723     5.7104     0.9920 C.ar    
  17 C17            2.2723     5.3643    -1.2380 C.ar    
  18 C18            3.8208     1.6559     3.7914 C.ar    
  19 C19            5.9628     1.0930     2.8815 C.ar    
  20 C20            7.4131     2.9864    -1.7166 C.3     
  21 C21            2.4811     6.2007    -0.1574 C.ar    
  22 C22            5.1230     1.2281     3.9712 C.ar    
  23 N23            8.4091     4.0113    -1.3767 N.3     
  24 C24            1.8573    -2.1762    -1.7843 C.3     
  25 H25            7.8692     1.9990    -1.6461 H       
  26 H26           -0.8528     1.1498    -0.0182 H       
  27 H27           -0.4896    -1.0499    -1.0638 H       
  28 H28            1.0689     2.6005     0.4966 H       
  29 H29            3.7160    -0.3421    -1.0919 H       
  30 H30            3.9226     4.0024     1.9563 H       
  31 H31            2.5115     3.3896    -2.0215 H       
  32 H32            2.3392     2.2766     2.3808 H       
  33 H33            6.1500     1.2591     0.7584 H       
  34 H34            5.7806     4.0630    -0.8129 H       
  35 H35            6.5938     2.9120     0.2744 H       
  36 H36            3.2304     6.3625     1.8383 H       
  37 H37            1.8104     5.7473    -2.1360 H       
  38 H38            3.1664     1.7668     4.6433 H       
  39 H39            6.9801     0.7587     3.0219 H       
  40 H40            7.0560     3.1499    -2.7334 H       
  41 H41            2.1774     7.2358    -0.2091 H       
  42 H42            5.4870     1.0087     4.9640 H       
  43 H43            8.7083     3.9206    -0.4173 H       
  44 H44            9.1967     3.9730    -2.0062 H       
  45 H45            1.8318    -2.0701    -2.8689 H       
  46 H46            2.8280    -2.5680    -1.4803 H       
  47 H47            1.0728    -2.8636    -1.4680 H       
@<TRIPOS>BOND
   1    1    2 ar
   2    1    3 ar
   3    1   26 1
   4    2    4 ar
   5    2   27 1
   6    3    5 ar
   7    3   28 1
   8    4    6 ar
   9    4   24 1
  10    5    6 ar
  11    5    7 1
  12    6   29 1
  13    7   10 1
  14    7    8 1
  15    7    9 1
  16    8   12 ar
  17    8   11 ar
  18    9   14 ar
  19    9   13 ar
  20   10   15 1
  21   11   16 ar
  22   11   30 1
  23   12   17 ar
  24   12   31 1
  25   13   18 ar
  26   13   32 1
  27   14   19 ar
  28   14   33 1
  29   15   20 1
  30   15   34 1
  31   15   35 1
  32   16   21 ar
  33   16   36 1
  34   17   21 ar
  35   17   37 1
  36   18   22 ar
  37   18   38 1
  38   19   22 ar
  39   19   39 1
  40   20   23 1
  41   20   25 1
  42   20   40 1
  43   21   41 1
  44   22   42 1
  45   23   43 1
  46   23   44 1
  47   24   45 1
  48   24   46 1
  49   24   47 1

#	End of record

