#	Name: ASD03248003
#	Creating user name:	WinNT
#	Creation time:	15. 06. 2019 20:35

#	Modifying user name:	WinNT
#	Modification time:	15. 06. 2019 20:35

#	Program:	/corina/corina34_cracker 3.40 0067  02.08.2006

@<TRIPOS>MOLECULE
ASD03248003
  64   67    0    0    0
SMALL
NO_CHARGES


@<TRIPOS>ATOM
   1 C1            -0.2444     1.2122     0.0359 C.2     
   2 C2            -0.1869    -0.2866     0.1819 C.3     
   3 C3             1.1591    -0.6887     0.7882 C.3     
   4 O4             0.7790     1.8474    -0.1057 O.2     
   5 N5             1.2483    -0.1799     2.1633 N.3     
   6 C6             3.5439     0.6551     2.3376 C.3     
   7 C7             2.5707    -0.4542     2.7414 C.3     
   8 C8             2.4599    -0.5053     4.2665 C.3     
   9 N9            -1.4335     1.8462     0.0571 N.am    
  10 C10           -1.5066     3.3149     0.0263 C.3     
  11 C11           -2.4738     3.7309    -1.0872 C.3     
  12 N12           -3.7604     3.0488    -0.8939 N.3     
  13 C13           -3.6130     1.5915    -1.0051 C.3     
  14 C14           -2.6927     1.0877     0.1055 C.3     
  15 C15           -5.4719     3.7761    -3.9397 C.ar    
  16 N16           -6.5429     4.4283    -3.5350 N.ar    
  17 C17           -6.7554     4.6608    -2.2461 C.ar    
  18 C18           -5.8352     4.2086    -1.3233 C.ar    
  19 C19           -4.7113     3.5210    -1.7840 C.ar    
  20 N20           -4.5685     3.3272    -3.0923 N.ar    
  21 C21           -6.2771     4.5825     0.0719 C.3     
  22 C22           -7.7758     4.9311    -0.0601 C.3     
  23 C23           -7.8840     5.3732    -1.5356 C.3     
  24 C24           -6.0888     3.3994     1.0235 C.3     
  25 O25           -7.7218     6.7889    -1.6422 O.3     
  26 C26           -0.3400    -0.9295    -1.1724 C.ar    
  27 C27           -1.3930    -1.7924    -1.4126 C.ar    
  28 C28           -1.5339    -2.3823    -2.6545 C.ar    
  29 C29           -0.6209    -2.1092    -3.6575 C.ar    
  30 C30            0.4328    -1.2455    -3.4165 C.ar    
  31 C31            0.5694    -0.6518    -2.1759 C.ar    
  32 Cl32          -0.7969    -2.8502    -5.2174 Cl      
  33 H33           -0.9935    -0.6192     0.8353 H       
  34 H34            1.2436    -1.7754     0.7966 H       
  35 H35            1.9672    -0.2661     0.1912 H       
  36 H36            1.0357     0.8058     2.1987 H       
  37 H37            3.6228     0.6916     1.2510 H       
  38 H38            3.1772     1.6126     2.7075 H       
  39 H39            4.5251     0.4516     2.7665 H       
  40 H40            2.9374    -1.4117     2.3714 H       
  41 H41            1.7666    -1.2957     4.5542 H       
  42 H42            3.4411    -0.7089     4.6954 H       
  43 H43            2.0932     0.4521     4.6365 H       
  44 H44           -1.8716     3.6835     0.9849 H       
  45 H45           -0.5176     3.7266    -0.1751 H       
  46 H46           -2.6253     4.8097    -1.0531 H       
  47 H47           -2.0561     3.4522    -2.0547 H       
  48 H48           -4.5907     1.1188    -0.9116 H       
  49 H49           -3.1795     1.3426    -1.9738 H       
  50 H50           -2.4875     0.0276    -0.0435 H       
  51 H51           -3.1739     1.2381     1.0719 H       
  52 H52           -5.3329     3.6004    -4.9962 H       
  53 H53           -5.7173     5.4476     0.4270 H       
  54 H54           -8.3956     4.0545     0.1283 H       
  55 H55           -8.0440     5.7479     0.6099 H       
  56 H56           -8.8445     5.0694    -1.9519 H       
  57 H57           -5.0513     3.0670     0.9892 H       
  58 H58           -6.3385     3.7067     2.0391 H       
  59 H59           -6.7426     2.5816     0.7203 H       
  60 H60           -7.7377     7.1193    -2.5508 H       
  61 H61           -2.1055    -2.0059    -0.6295 H       
  62 H62           -2.3564    -3.0567    -2.8420 H       
  63 H63            1.1458    -1.0319    -4.1990 H       
  64 H64            1.3894     0.0258    -1.9890 H       
@<TRIPOS>BOND
   1    1    2 1
   2    1    4 2
   3    1    9 am
   4    2    3 1
   5    2   26 1
   6    2   33 1
   7    3    5 1
   8    3   34 1
   9    3   35 1
  10    5    7 1
  11    5   36 1
  12    6    7 1
  13    6   37 1
  14    6   38 1
  15    6   39 1
  16    7    8 1
  17    7   40 1
  18    8   41 1
  19    8   42 1
  20    8   43 1
  21    9   10 1
  22    9   14 1
  23   10   11 1
  24   10   44 1
  25   10   45 1
  26   11   12 1
  27   11   46 1
  28   11   47 1
  29   12   13 1
  30   12   19 1
  31   13   14 1
  32   13   48 1
  33   13   49 1
  34   14   50 1
  35   14   51 1
  36   15   16 ar
  37   15   20 ar
  38   15   52 1
  39   16   17 ar
  40   17   18 ar
  41   17   23 1
  42   18   19 ar
  43   18   21 1
  44   19   20 ar
  45   21   22 1
  46   21   24 1
  47   21   53 1
  48   22   23 1
  49   22   54 1
  50   22   55 1
  51   23   25 1
  52   23   56 1
  53   24   57 1
  54   24   58 1
  55   24   59 1
  56   25   60 1
  57   26   27 ar
  58   26   31 ar
  59   27   28 ar
  60   27   61 1
  61   28   29 ar
  62   28   62 1
  63   29   30 ar
  64   29   32 1
  65   30   31 ar
  66   30   63 1
  67   31   64 1

#	End of record

