#	Name: ASD04550035
#	Creating user name:	WinNT
#	Creation time:	15. 06. 2019 20:49

#	Modifying user name:	WinNT
#	Modification time:	15. 06. 2019 20:49

#	Program:	/corina/corina34_cracker 3.40 0067  02.08.2006

@<TRIPOS>MOLECULE
ASD04550035
  31   31    0    0    0
SMALL
NO_CHARGES


@<TRIPOS>ATOM
   1 C1            -0.0167     1.3779     0.0096 C.ar    
   2 C2             0.0021    -0.0041     0.0020 C.ar    
   3 C3            -1.1857    -0.7116     0.0095 C.ar    
   4 C4            -2.3919    -0.0369     0.0251 C.ar    
   5 C5            -2.4106     1.3455     0.0336 C.ar    
   6 C6            -1.2232     2.0528     0.0305 C.ar    
   7 C7            -3.7258     2.0812     0.0501 C.3     
   8 C8            -4.5344     1.7082    -1.1941 C.3     
   9 C9             1.2780     2.1491     0.0014 C.3     
  10 C10            1.8579     2.1872     1.4167 C.3     
  11 O11            2.2071     1.5108    -0.8770 O.3     
  12 C12            3.1050     3.0735     1.4332 C.3     
  13 C13           -4.4997     1.6990     1.2854 C.2     
  14 O14           -4.0314     0.9101     2.0717 O.2     
  15 O15           -5.7093     2.2349     1.5121 O.3     
  16 H16            0.9446    -0.5313    -0.0101 H       
  17 H17           -1.1711    -1.7915     0.0029 H       
  18 H18           -3.3198    -0.5895     0.0302 H       
  19 H19           -1.2378     3.1327     0.0372 H       
  20 H20           -3.5412     3.1554     0.0549 H       
  21 H21           -5.4856     2.2403    -1.1822 H       
  22 H22           -3.9746     1.9847    -2.0876 H       
  23 H23           -4.7190     0.6340    -1.1989 H       
  24 H24            1.0927     3.1666    -0.3429 H       
  25 H25            1.1147     2.5930     2.1031 H       
  26 H26            2.1258     1.1773     1.7270 H       
  27 H27            2.4190     0.6000    -0.6308 H       
  28 H28            3.8482     2.6677     0.7469 H       
  29 H29            2.8371     4.0835     1.1230 H       
  30 H30            3.5181     3.1007     2.4415 H       
  31 H31           -6.1676     1.9592     2.3178 H       
@<TRIPOS>BOND
   1    1    2 ar
   2    1    9 1
   3    1    6 ar
   4    2    3 ar
   5    2   16 1
   6    3    4 ar
   7    3   17 1
   8    4    5 ar
   9    4   18 1
  10    5    6 ar
  11    5    7 1
  12    6   19 1
  13    7    8 1
  14    7   13 1
  15    7   20 1
  16    8   21 1
  17    8   22 1
  18    8   23 1
  19    9   10 1
  20    9   11 1
  21    9   24 1
  22   10   12 1
  23   10   25 1
  24   10   26 1
  25   11   27 1
  26   12   28 1
  27   12   29 1
  28   12   30 1
  29   13   14 2
  30   13   15 1
  31   15   31 1

#	End of record

