#	Name: ASD01813705
#	Creating user name:	WinNT
#	Creation time:	15. 06. 2019 19:30

#	Modifying user name:	WinNT
#	Modification time:	15. 06. 2019 19:30

#	Program:	/corina/corina34_cracker 3.40 0067  02.08.2006

@<TRIPOS>MOLECULE
ASD01813705
  39   42    0    0    0
SMALL
NO_CHARGES


@<TRIPOS>ATOM
   1 C1            -0.0168     1.3834    -0.0447 C.ar    
   2 C2             0.0020    -0.0038    -0.0518 C.ar    
   3 C3             1.1976    -0.6920    -0.0490 C.ar    
   4 C4             2.4035     0.0084    -0.0389 C.ar    
   5 C5             2.3796     1.4130    -0.0318 C.ar    
   6 C6             1.1627     2.0947    -0.0347 C.ar    
   7 N7             3.6056    -0.6668    -0.0350 N.pl3   
   8 C8             4.7891    -0.0410    -0.0241 C.2     
   9 C9             4.8932     1.3356    -0.0159 C.2     
  10 C10            3.6619     2.1417    -0.0212 C.2     
  11 O11            3.7002     3.3596    -0.0147 O.2     
  12 C12            6.2116     1.9851    -0.0029 C.2     
  13 O13            6.3002     3.3303     0.0050 O.3     
  14 O14            7.2221     1.3094     0.0007 O.2     
  15 C15            3.5871    -2.1316    -0.0427 C.3     
  16 C16            3.4445    -2.6248    -1.4595 C.ar    
  17 N17            4.5319    -2.8477    -2.1707 N.ar    
  18 C18            4.4520    -3.2806    -3.4172 C.ar    
  19 C19            3.1913    -3.5010    -3.9771 C.ar    
  20 C20            2.0663    -3.2517    -3.1873 C.ar    
  21 N21            2.2365    -2.8249    -1.9477 N.ar    
  22 F22            1.2003    -2.0430    -0.0555 F       
  23 C23            3.0509    -3.9863    -5.3728 C.2     
  24 C24            1.8027    -4.2618    -6.0928 C.2     
  25 C25            2.1653    -4.6775    -7.3181 C.2     
  26 O26            3.5043    -4.6774    -7.4006 O.3     
  27 C27            4.0511    -4.2615    -6.2490 C.2     
  28 H28           -0.9608     1.9081    -0.0515 H       
  29 H29           -0.9293    -0.5507    -0.0592 H       
  30 H30            1.1454     3.1745    -0.0295 H       
  31 H31            5.6925    -0.6328    -0.0212 H       
  32 H32            7.1887     3.7117     0.0134 H       
  33 H33            4.5175    -2.5090     0.3815 H       
  34 H34            2.7459    -2.4875     0.5522 H       
  35 H35            5.3473    -3.4607    -3.9938 H       
  36 H36            1.0734    -3.4092    -3.5818 H       
  37 H37            0.7969    -4.1532    -5.7147 H       
  38 H38            1.4881    -4.9657    -8.1086 H       
  39 H39            5.1084    -4.1685    -6.0496 H       
@<TRIPOS>BOND
   1    1    2 ar
   2    1    6 ar
   3    1   28 1
   4    2    3 ar
   5    2   29 1
   6    3    4 ar
   7    3   22 1
   8    4    5 ar
   9    4    7 1
  10    5    6 ar
  11    5   10 1
  12    6   30 1
  13    7    8 1
  14    7   15 1
  15    8    9 2
  16    8   31 1
  17    9   10 1
  18    9   12 1
  19   10   11 2
  20   12   13 1
  21   12   14 2
  22   13   32 1
  23   15   16 1
  24   15   33 1
  25   15   34 1
  26   16   17 ar
  27   16   21 ar
  28   17   18 ar
  29   18   19 ar
  30   18   35 1
  31   19   20 ar
  32   19   23 1
  33   20   21 ar
  34   20   36 1
  35   23   24 1
  36   23   27 2
  37   24   25 2
  38   24   37 1
  39   25   26 1
  40   25   38 1
  41   26   27 1
  42   27   39 1

#	End of record

