#	Name: ASD01917198
#	Creating user name:	WinNT
#	Creation time:	15. 06. 2019 20:08

#	Modifying user name:	WinNT
#	Modification time:	15. 06. 2019 20:08

#	Program:	/corina/corina34_cracker 3.40 0067  02.08.2006

@<TRIPOS>MOLECULE
ASD01917198
  40   40    0    0    0
SMALL
NO_CHARGES


@<TRIPOS>ATOM
   1 N1            -0.0169     1.3961     0.0097 N.2     
   2 N2             0.0021    -0.0041     0.0020 N.pl3   
   3 C3             1.3093    -0.4042    -0.0126 C.2     
   4 C4             2.0839     0.7387    -0.0139 C.2     
   5 C5             1.2196     1.8356     0.0003 C.2     
   6 C6             1.7982    -1.7906    -0.0240 C.2     
   7 O7             2.9931    -2.0136    -0.0362 O.2     
   8 O8             0.9214    -2.8147    -0.0209 O.3     
   9 O9             1.5968     3.1422     0.0033 O.3     
  10 Si10           1.7954     3.7719     1.4947 Si      
  11 C11            0.1906     3.6608     2.4344 C.3     
  12 C12            3.1134     2.8173     2.4013 C.3     
  13 C13            2.3090     5.5570     1.3517 C.3     
  14 C14            1.2265     6.3411     0.6070 C.3     
  15 C15            2.4953     6.1478     2.7507 C.3     
  16 C16            3.6269     5.6483     0.5799 C.3     
  17 C17            1.4752    -4.1568    -0.0326 C.3     
  18 C18            0.3364    -5.1786    -0.0270 C.3     
  19 H19           -0.7738    -0.5862     0.0063 H       
  20 H20            3.1632     0.7774    -0.0237 H       
  21 H21           -0.1098     2.6164     2.5181 H       
  22 H22            0.3234     4.0816     3.4311 H       
  23 H23           -0.5805     4.2194     1.9040 H       
  24 H24            4.0523     2.8823     1.8515 H       
  25 H25            3.2462     3.2381     3.3980 H       
  26 H26            2.8130     1.7728     2.4850 H       
  27 H27            0.2876     6.2761     1.1569 H       
  28 H28            1.5270     7.3855     0.5234 H       
  29 H29            1.0938     5.9203    -0.3896 H       
  30 H30            3.2665     5.5892     3.2812 H       
  31 H31            2.7958     7.1922     2.6670 H       
  32 H32            1.5564     6.0827     3.3005 H       
  33 H33            3.4941     5.2275    -0.4168 H       
  34 H34            3.9274     6.6927     0.4962 H       
  35 H35            4.3980     5.0898     1.1104 H       
  36 H36            2.0805    -4.2923    -0.9290 H       
  37 H37            2.0971    -4.3010     0.8509 H       
  38 H38           -0.2688    -5.0431     0.8693 H       
  39 H39           -0.2854    -5.0344    -0.9106 H       
  40 H40            0.7522    -6.1861    -0.0359 H       
@<TRIPOS>BOND
   1    1    2 1
   2    1    5 2
   3    2    3 1
   4    2   19 1
   5    3    4 2
   6    3    6 1
   7    4    5 1
   8    4   20 1
   9    5    9 1
  10    6    7 2
  11    6    8 1
  12    8   17 1
  13    9   10 1
  14   10   11 1
  15   10   12 1
  16   10   13 1
  17   11   21 1
  18   11   22 1
  19   11   23 1
  20   12   24 1
  21   12   25 1
  22   12   26 1
  23   13   14 1
  24   13   16 1
  25   13   15 1
  26   14   27 1
  27   14   28 1
  28   14   29 1
  29   15   30 1
  30   15   31 1
  31   15   32 1
  32   16   33 1
  33   16   34 1
  34   16   35 1
  35   17   18 1
  36   17   36 1
  37   17   37 1
  38   18   38 1
  39   18   39 1
  40   18   40 1

#	End of record

