#	Name: ASD05130032
#	Creating user name:	WinNT
#	Creation time:	15. 06. 2019 20:56

#	Modifying user name:	WinNT
#	Modification time:	15. 06. 2019 20:56

#	Program:	/corina/corina34_cracker 3.40 0067  02.08.2006

@<TRIPOS>MOLECULE
ASD05130032
  52   55    0    0    0
SMALL
NO_CHARGES


@<TRIPOS>ATOM
   1 N1            -0.0346     1.3709    -0.0015 N.am    
   2 C2            -0.0021     0.1686     0.6067 C.2     
   3 O3             1.0502    -0.2710     1.0286 O.2     
   4 N4            -1.1359    -0.5464     0.7472 N.am    
   5 C5            -1.0878    -1.8347     1.2919 C.ar    
   6 C6            -0.1786    -2.1291     2.2961 C.ar    
   7 C7            -0.1350    -3.4148     2.8360 C.ar    
   8 C8            -1.0077    -4.3964     2.3609 C.ar    
   9 C9            -1.9087    -4.0927     1.3611 C.ar    
  10 C10           -1.9552    -2.8171     0.8299 C.ar    
  11 C11            0.8015    -3.7270     3.8733 C.1     
  12 N12            1.5445    -3.9748     4.6962 N.1     
  13 C13            1.1269     2.1515    -0.0731 C.ar    
  14 C14            1.0295     3.5352    -0.1864 C.ar    
  15 C15            2.1741     4.3094    -0.2573 C.ar    
  16 C16            3.4196     3.7127    -0.2155 C.ar    
  17 C17            3.5253     2.3260    -0.1015 C.ar    
  18 C18            2.3720     1.5465    -0.0252 C.ar    
  19 N19            6.8873     1.1757     1.2009 N.am    
  20 C20            5.6736     1.7595     1.1590 C.2     
  21 C21            4.8600     1.6841    -0.0566 C.2     
  22 C22            5.3402     1.0167    -1.1501 C.2     
  23 C23            6.6177     0.4118    -1.0814 C.ar    
  24 C24            7.1485    -0.2807    -2.1766 C.ar    
  25 N25            8.3376    -0.8368    -2.0963 N.ar    
  26 C26            9.0777    -0.7698    -0.9947 C.ar    
  27 C27            8.6279    -0.1032     0.1362 C.ar    
  28 C28            7.3773     0.5027     0.1055 C.ar    
  29 O29            5.2513     2.3520     2.1360 O.2     
  30 N30           10.3241    -1.3784    -0.9747 N.pl3   
  31 C31           11.1518    -1.3133     0.2323 C.3     
  32 C32            7.6941     1.2634     2.4206 C.3     
  33 F33           -0.1858     4.1240    -0.2277 F       
  34 Cl34           4.8528     4.6881    -0.3054 Cl      
  35 H35           -0.8610     1.6941    -0.3932 H       
  36 H36           -1.9852    -0.1680     0.4708 H       
  37 H37            0.4938    -1.3659     2.6590 H       
  38 H38           -0.9770    -5.3930     2.7758 H       
  39 H39           -2.5824    -4.8531     0.9947 H       
  40 H40           -2.6657    -2.5843     0.0506 H       
  41 H41            2.0937     5.3828    -0.3459 H       
  42 H42            2.4492     0.4732     0.0672 H       
  43 H43            4.7520     0.9520    -2.0536 H       
  44 H44            6.5789    -0.3588    -3.0909 H       
  45 H45            9.2393    -0.0558     1.0252 H       
  46 H46           10.6477    -1.8471    -1.7599 H       
  47 H47           10.6195    -1.7760     1.0633 H       
  48 H48           12.0881    -1.8442     0.0600 H       
  49 H49           11.3638    -0.2713     0.4718 H       
  50 H50            7.1514     1.8330     3.1750 H       
  51 H51            7.8939     0.2601     2.7969 H       
  52 H52            8.6372     1.7622     2.1973 H       
@<TRIPOS>BOND
   1    1    2 am
   2    1   13 1
   3    1   35 1
   4    2    3 2
   5    2    4 am
   6    4    5 1
   7    4   36 1
   8    5    6 ar
   9    5   10 ar
  10    6    7 ar
  11    6   37 1
  12    7    8 ar
  13    7   11 1
  14    8    9 ar
  15    8   38 1
  16    9   10 ar
  17    9   39 1
  18   10   40 1
  19   11   12 3
  20   13   14 ar
  21   13   18 ar
  22   14   15 ar
  23   14   33 1
  24   15   16 ar
  25   15   41 1
  26   16   17 ar
  27   16   34 1
  28   17   18 ar
  29   17   21 1
  30   18   42 1
  31   19   20 am
  32   19   28 1
  33   19   32 1
  34   20   21 1
  35   20   29 2
  36   21   22 2
  37   22   23 1
  38   22   43 1
  39   23   24 ar
  40   23   28 ar
  41   24   25 ar
  42   24   44 1
  43   25   26 ar
  44   26   27 ar
  45   26   30 1
  46   27   28 ar
  47   27   45 1
  48   30   31 1
  49   30   46 1
  50   31   47 1
  51   31   48 1
  52   31   49 1
  53   32   50 1
  54   32   51 1
  55   32   52 1

#	End of record

