#	Name: ASD03240333
#	Creating user name:	WinNT
#	Creation time:	15. 06. 2019 20:34

#	Modifying user name:	WinNT
#	Modification time:	15. 06. 2019 20:34

#	Program:	/corina/corina34_cracker 3.40 0067  02.08.2006

@<TRIPOS>MOLECULE
ASD03240333
  92   91    0    0    0
SMALL
NO_CHARGES


@<TRIPOS>ATOM
   1 C1            -0.0257     1.2866    -0.1324 C.2     
   2 C2             0.0174     0.0096     0.1563 C.2     
   3 C3             1.3419    -0.7076     0.2052 C.3     
   4 C4             1.4777    -1.4372     1.5432 C.3     
   5 C5             2.8225    -2.1653     1.5928 C.3     
   6 C6             2.9583    -2.8949     2.9308 C.3     
   7 C7             4.3030    -3.6230     2.9805 C.3     
   8 C8             4.4388    -4.3526     4.3184 C.3     
   9 C9             5.7835    -5.0807     4.3681 C.3     
  10 C10            5.9193    -5.8103     5.7061 C.3     
  11 C11            1.2260     2.0030    -0.5697 C.3     
  12 C12            0.9618     2.7324    -1.8885 C.3     
  13 C13            2.2326     3.4596    -2.3325 C.3     
  14 C14            1.9684     4.1891    -3.6512 C.3     
  15 C15            3.2392     4.9163    -4.0952 C.3     
  16 C16            2.9750     5.6457    -5.4140 C.3     
  17 C17            4.2457     6.3730    -5.8580 C.3     
  18 C18            3.9815     7.1024    -7.1767 C.3     
  19 C19            5.2523     7.8296    -7.6207 C.3     
  20 C20            4.9881     8.5591    -8.9395 C.3     
  21 C21            6.2589     9.2863    -9.3835 C.3     
  22 C22            5.9947    10.0157   -10.7022 C.3     
  23 O23            7.1816    10.6950   -11.1169 O.3     
  24 P24            7.2661    11.5676   -12.4673 P.3     
  25 O25            8.7783    12.0758   -12.6841 O.3     
  26 C26            9.2006    12.7881   -13.8487 C.3     
  27 C27           10.6900    13.1182   -13.7326 C.3     
  28 C28           11.1421    13.8809   -14.9795 C.3     
  29 N29           12.5722    14.1979   -14.8680 N.4     
  30 C30           13.3420    12.9523   -14.7498 C.3     
  31 C31           13.0063    14.9301   -16.0652 C.3     
  32 C32           12.7983    15.0281   -13.6774 C.3     
  33 O33            6.8376    10.6979   -13.6702 O.co2   
  34 O34            6.3245    12.7871   -12.3521 O.co2   
  35 H35           -0.9591     1.8252    -0.0612 H       
  36 H36           -0.8963    -0.5293     0.3592 H       
  37 H37            1.3943    -1.4299    -0.6095 H       
  38 H38            2.1508     0.0157     0.1020 H       
  39 H39            1.4253    -0.7149     2.3578 H       
  40 H40            0.6689    -2.1605     1.6463 H       
  41 H41            2.8748    -2.8876     0.7782 H       
  42 H42            3.6313    -1.4420     1.4897 H       
  43 H43            2.9059    -2.1726     3.7454 H       
  44 H44            2.1494    -3.6182     3.0340 H       
  45 H45            4.3554    -4.3453     2.1658 H       
  46 H46            5.1119    -2.8997     2.8773 H       
  47 H47            4.3864    -3.6303     5.1331 H       
  48 H48            3.6299    -5.0759     4.4216 H       
  49 H49            5.8359    -5.8030     3.5534 H       
  50 H50            6.5924    -4.3574     4.2649 H       
  51 H51            5.8670    -5.0880     6.5207 H       
  52 H52            5.1105    -6.5336     5.8092 H       
  53 H53            6.8773    -6.3290     5.7414 H       
  54 H54            1.5166     2.7253     0.1931 H       
  55 H55            2.0289     1.2791    -0.7094 H       
  56 H56            0.6712     2.0101    -2.6513 H       
  57 H57            0.1589     3.4562    -1.7488 H       
  58 H58            2.5232     4.1819    -1.5696 H       
  59 H59            3.0355     2.7358    -2.4722 H       
  60 H60            1.6777     3.4668    -4.4140 H       
  61 H61            1.1655     4.9129    -3.5115 H       
  62 H62            3.5298     5.6386    -3.3324 H       
  63 H63            4.0420     4.1924    -4.2349 H       
  64 H64            2.6843     4.9234    -6.1768 H       
  65 H65            2.1721     6.3696    -5.2743 H       
  66 H66            4.5364     7.0953    -5.0952 H       
  67 H67            5.0486     5.6491    -5.9977 H       
  68 H68            3.6909     6.3801    -7.9396 H       
  69 H69            3.1787     7.8262    -7.0370 H       
  70 H70            5.5430     8.5519    -6.8579 H       
  71 H71            6.0552     7.1058    -7.7604 H       
  72 H72            4.6975     7.8368    -9.7023 H       
  73 H73            4.1852     9.2829    -8.7998 H       
  74 H74            6.5495    10.0086    -8.6207 H       
  75 H75            7.0618     8.5625    -9.5232 H       
  76 H76            5.7041     9.2934   -11.4651 H       
  77 H77            5.1918    10.7396   -10.5625 H       
  78 H78            9.0328    12.1720   -14.7322 H       
  79 H79            8.6294    13.7123   -13.9364 H       
  80 H80           10.8578    13.7343   -12.8492 H       
  81 H81           11.2613    12.1940   -13.6449 H       
  82 H82           10.9744    13.2648   -15.8629 H       
  83 H83           10.5709    14.8051   -15.0672 H       
  84 H84           13.1743    12.3363   -15.6332 H       
  85 H85           14.4031    13.1875   -14.6671 H       
  86 H86           13.0200    12.4090   -13.8615 H       
  87 H87           12.4350    15.8543   -16.1529 H       
  88 H88           14.0674    15.1653   -15.9825 H       
  89 H89           12.8385    14.3140   -16.9486 H       
  90 H90           12.4762    14.4848   -12.7890 H       
  91 H91           13.8594    15.2633   -13.5946 H       
  92 H92           12.2271    15.9523   -13.7651 H       
@<TRIPOS>BOND
   1    1    2 2
   2    1   11 1
   3    1   35 1
   4    2    3 1
   5    2   36 1
   6    3    4 1
   7    3   37 1
   8    3   38 1
   9    4    5 1
  10    4   39 1
  11    4   40 1
  12    5    6 1
  13    5   41 1
  14    5   42 1
  15    6    7 1
  16    6   43 1
  17    6   44 1
  18    7    8 1
  19    7   45 1
  20    7   46 1
  21    8    9 1
  22    8   47 1
  23    8   48 1
  24    9   10 1
  25    9   49 1
  26    9   50 1
  27   10   51 1
  28   10   52 1
  29   10   53 1
  30   11   12 1
  31   11   54 1
  32   11   55 1
  33   12   13 1
  34   12   56 1
  35   12   57 1
  36   13   14 1
  37   13   58 1
  38   13   59 1
  39   14   15 1
  40   14   60 1
  41   14   61 1
  42   15   16 1
  43   15   62 1
  44   15   63 1
  45   16   17 1
  46   16   64 1
  47   16   65 1
  48   17   18 1
  49   17   66 1
  50   17   67 1
  51   18   19 1
  52   18   68 1
  53   18   69 1
  54   19   20 1
  55   19   70 1
  56   19   71 1
  57   20   21 1
  58   20   72 1
  59   20   73 1
  60   21   22 1
  61   21   74 1
  62   21   75 1
  63   22   23 1
  64   22   76 1
  65   22   77 1
  66   23   24 1
  67   24   25 1
  68   24   33 ar
  69   24   34 ar
  70   25   26 1
  71   26   27 1
  72   26   78 1
  73   26   79 1
  74   27   28 1
  75   27   80 1
  76   27   81 1
  77   28   29 1
  78   28   82 1
  79   28   83 1
  80   29   30 1
  81   29   31 1
  82   29   32 1
  83   30   84 1
  84   30   85 1
  85   30   86 1
  86   31   87 1
  87   31   88 1
  88   31   89 1
  89   32   90 1
  90   32   91 1
  91   32   92 1

#	End of record

