#	Name: ASD01880603
#	Creating user name:	WinNT
#	Creation time:	15. 06. 2019 19:41

#	Modifying user name:	WinNT
#	Modification time:	15. 06. 2019 19:41

#	Program:	/corina/corina34_cracker 3.40 0067  02.08.2006

@<TRIPOS>MOLECULE
ASD01880603
  48   52    0    0    0
SMALL
NO_CHARGES


@<TRIPOS>ATOM
   1 C1            -0.0169     1.3927     0.0097 C.ar    
   2 C2             0.0021    -0.0041     0.0020 C.ar    
   3 C3             1.2135    -0.6907    -0.0127 C.ar    
   4 C4             2.4022     0.0193    -0.0202 C.ar    
   5 C5             2.3728     1.4246    -0.0129 C.ar    
   6 C6             1.1522     2.0999     0.0023 C.ar    
   7 N7             3.6286    -0.6376    -0.0344 N.pl3   
   8 C8             4.7929     0.0687    -0.0413 C.2     
   9 N9             4.8015     1.4561    -0.0342 N.am    
  10 C10            3.6502     2.1585    -0.0207 C.2     
  11 N11            3.9493    -2.0026    -0.0439 N.2     
  12 C12            5.2606    -2.1201    -0.0562 C.2     
  13 C13            5.8180    -0.8301    -0.0549 C.2     
  14 O14            3.6662     3.3751    -0.0144 O.2     
  15 C15           -1.2742    -0.7594     0.0101 C.ar    
  16 C16            6.0195    -3.3953    -0.0685 C.ar    
  17 C17           -2.4902    -0.0781     0.0253 C.ar    
  18 C18           -3.6747    -0.7862     0.0328 C.ar    
  19 C19           -3.6568    -2.1694     0.0257 C.ar    
  20 C20           -2.4530    -2.8508     0.0106 C.ar    
  21 C21           -1.2623    -2.1531    -0.0033 C.ar    
  22 C22            5.3413    -4.6126    -0.0681 C.ar    
  23 C23            7.4127    -3.3798    -0.0863 C.ar    
  24 C24            8.1134    -4.5688    -0.0976 C.ar    
  25 C25            7.4352    -5.7743    -0.0914 C.ar    
  26 C26            6.0521    -5.7956    -0.0796 C.ar    
  27 C27            6.0812     2.1693    -0.0418 C.3     
  28 C28            6.5139     2.4251    -1.4869 C.3     
  29 O29            5.5837     3.3110    -2.1130 O.3     
  30 H30           -0.9612     1.9167     0.0170 H       
  31 H31            1.2257    -1.7707    -0.0179 H       
  32 H32            1.1314     3.1797     0.0080 H       
  33 H33            6.8715    -0.5928    -0.0632 H       
  34 H34           -2.5053     1.0017     0.0315 H       
  35 H35           -4.6174    -0.2595     0.0445 H       
  36 H36           -4.5862    -2.7195     0.0323 H       
  37 H37           -2.4450    -3.9307     0.0055 H       
  38 H38           -0.3231    -2.6861    -0.0154 H       
  39 H39            4.2615    -4.6303    -0.0586 H       
  40 H40            7.9432    -2.4391    -0.0915 H       
  41 H41            9.1932    -4.5580    -0.1117 H       
  42 H42            7.9874    -6.7024    -0.1006 H       
  43 H43            5.5276    -6.7396    -0.0747 H       
  44 H44            5.9699     3.1209     0.4780 H       
  45 H45            6.8363     1.5662     0.4623 H       
  46 H46            7.5064     2.8757    -1.4946 H       
  47 H47            6.5393     1.4810    -2.0311 H       
  48 H48            5.7960     3.5178    -3.0334 H       
@<TRIPOS>BOND
   1    1    2 ar
   2    1    6 ar
   3    1   30 1
   4    2    3 ar
   5    2   15 1
   6    3    4 ar
   7    3   31 1
   8    4    5 ar
   9    4    7 1
  10    5    6 ar
  11    5   10 1
  12    6   32 1
  13    7    8 1
  14    7   11 1
  15    8    9 1
  16    8   13 2
  17    9   10 am
  18    9   27 1
  19   10   14 2
  20   11   12 2
  21   12   13 1
  22   12   16 1
  23   13   33 1
  24   15   17 ar
  25   15   21 ar
  26   16   22 ar
  27   16   23 ar
  28   17   18 ar
  29   17   34 1
  30   18   19 ar
  31   18   35 1
  32   19   20 ar
  33   19   36 1
  34   20   21 ar
  35   20   37 1
  36   21   38 1
  37   22   26 ar
  38   22   39 1
  39   23   24 ar
  40   23   40 1
  41   24   25 ar
  42   24   41 1
  43   25   26 ar
  44   25   42 1
  45   26   43 1
  46   27   28 1
  47   27   44 1
  48   27   45 1
  49   28   29 1
  50   28   46 1
  51   28   47 1
  52   29   48 1

#	End of record

