#	Name: ASD01209164
#	Creating user name:	WinNT
#	Creation time:	15. 06. 2019 19:11

#	Modifying user name:	WinNT
#	Modification time:	15. 06. 2019 19:11

#	Program:	/corina/corina34_cracker 3.40 0067  02.08.2006

@<TRIPOS>MOLECULE
ASD01209164
  59   61    0    0    0
SMALL
NO_CHARGES


@<TRIPOS>ATOM
   1 O1             0.9295     0.2246     3.3925 O.3     
   2 O2             2.8122     1.6891     4.4985 O.3     
   3 C3             8.5078     9.4474     2.9385 C.ar    
   4 C4             7.9860     9.9151     4.1371 C.ar    
   5 C5             6.8620     9.3246     4.6849 C.ar    
   6 C6             6.2507     8.2672     4.0433 C.ar    
   7 C7             6.7680     7.7898     2.8374 C.ar    
   8 C8             7.8993     8.3895     2.2835 C.ar    
   9 C9             6.1161     6.6568     2.1474 C.2     
  10 N10            5.0203     6.0825     2.6821 N.am    
  11 O11            6.5683     6.2430     1.0977 O.2     
  12 C12            4.4077     5.0179     2.0338 C.2     
  13 P13            2.2042     1.1645     3.1030 P.3     
  14 O14            3.2344     0.3888     2.3767 O.2     
  15 C15            1.6904     2.5902     2.0898 C.3     
  16 N16            3.3531     4.3961     2.4604 N.2     
  17 S17            4.9303     4.3413     0.5532 S.3     
  18 C18            3.6090     3.1773     0.6066 C.2     
  19 C19            2.9026     3.4037     1.7159 C.2     
  20 C20            1.0248    -1.0281     4.0735 C.3     
  21 C21           -0.3654    -1.6581     4.1794 C.3     
  22 C22            3.3987     0.8186     5.4682 C.3     
  23 C23            3.8730     1.6390     6.6694 C.3     
  24 O24            9.6127    10.0316     2.4048 O.3     
  25 C25           10.8293     9.5542     2.7768 C.ar    
  26 C26           11.9860    10.1867     2.3439 C.ar    
  27 C27           13.2216     9.6997     2.7239 C.ar    
  28 C28           13.3063     8.5830     3.5350 C.ar    
  29 C29           12.1552     7.9509     3.9677 C.ar    
  30 C30           10.9171     8.4369     3.5949 C.ar    
  31 S31           14.8839     7.9641     4.0173 S.o2    
  32 O32           14.6578     6.5833     4.2655 O.2     
  33 O33           15.7587     8.3885     2.9811 O.2     
  34 C34           15.2587     8.8357     5.5635 C.3     
  35 H35            8.4600    10.7428     4.6437 H       
  36 H36            6.4610     9.6927     5.6177 H       
  37 H37            5.3734     7.8079     4.4743 H       
  38 H38            8.3039     8.0250     1.3508 H       
  39 H39            4.6595     6.4128     3.5198 H       
  40 H40            1.1984     2.2342     1.1847 H       
  41 H41            0.9984     3.2103     2.6596 H       
  42 H42            3.4041     2.4160    -0.1315 H       
  43 H43            1.6844    -1.6945     3.5177 H       
  44 H44            1.4284    -0.8683     5.0734 H       
  45 H45           -1.0250    -0.9916     4.7352 H       
  46 H46           -0.7690    -1.8179     3.1796 H       
  47 H47           -0.2927    -2.6136     4.6989 H       
  48 H48            2.6586     0.0887     5.7961 H       
  49 H49            4.2484     0.3001     5.0241 H       
  50 H50            4.6131     2.3689     6.3414 H       
  51 H51            3.0233     2.1576     7.1135 H       
  52 H52            4.3204     0.9750     7.4090 H       
  53 H53           11.9204    11.0587     1.7102 H       
  54 H54           14.1222    10.1914     2.3870 H       
  55 H55           12.2241     7.0789     4.6011 H       
  56 H56           10.0183     7.9430     3.9334 H       
  57 H57           14.4899     8.6109     6.3028 H       
  58 H58           16.2292     8.5103     5.9380 H       
  59 H59           15.2820     9.9096     5.3787 H       
@<TRIPOS>BOND
   1    1   20 1
   2    1   13 1
   3    2   22 1
   4    2   13 1
   5    3    4 ar
   6    3   24 1
   7    3    8 ar
   8    4    5 ar
   9    4   35 1
  10    5    6 ar
  11    5   36 1
  12    6    7 ar
  13    6   37 1
  14    7    8 ar
  15    7    9 1
  16    8   38 1
  17    9   10 am
  18    9   11 2
  19   10   12 1
  20   10   39 1
  21   12   16 2
  22   12   17 1
  23   13   14 2
  24   13   15 1
  25   15   19 1
  26   15   40 1
  27   15   41 1
  28   16   19 1
  29   17   18 1
  30   18   19 2
  31   18   42 1
  32   20   21 1
  33   20   43 1
  34   20   44 1
  35   21   45 1
  36   21   46 1
  37   21   47 1
  38   22   23 1
  39   22   48 1
  40   22   49 1
  41   23   50 1
  42   23   51 1
  43   23   52 1
  44   24   25 1
  45   25   26 ar
  46   25   30 ar
  47   26   27 ar
  48   26   53 1
  49   27   28 ar
  50   27   54 1
  51   28   29 ar
  52   28   31 1
  53   29   30 ar
  54   29   55 1
  55   30   56 1
  56   31   32 2
  57   31   33 2
  58   31   34 1
  59   34   57 1
  60   34   58 1
  61   34   59 1

#	End of record

