#	Name: ASD02198397
#	Creating user name:	WinNT
#	Creation time:	15. 06. 2019 20:19

#	Modifying user name:	WinNT
#	Modification time:	15. 06. 2019 20:19

#	Program:	/corina/corina34_cracker 3.40 0067  02.08.2006

@<TRIPOS>MOLECULE
ASD02198397
  35   38    0    0    0
SMALL
NO_CHARGES


@<TRIPOS>ATOM
   1 C1            -0.2138     1.0699    -0.3401 C.2     
   2 C2            -0.1175    -0.2750    -0.3554 C.2     
   3 S3             1.3946     1.7710    -0.2168 S.3     
   4 C4             2.1239     0.1710    -0.1923 C.2     
   5 C5             1.1696    -0.7618    -0.2739 C.2     
   6 S6             3.8519    -0.1539    -0.0776 S.o2    
   7 N7             4.4424    -0.2178    -1.6234 N.am    
   8 C8             4.3259     0.8911    -2.4605 C.ar    
   9 C9             4.0867     0.7181    -3.8417 C.ar    
  10 C10            3.9722     1.8623    -4.6683 C.ar    
  11 C11            4.0980     3.1430    -4.1066 C.ar    
  12 C12            4.3291     3.2795    -2.7713 C.ar    
  13 C13            4.4377     2.1645    -1.9458 C.ar    
  14 N14            3.9685    -0.5016    -4.3729 N.ar    
  15 C15            3.7468    -0.6686    -5.6541 C.ar    
  16 C16            3.6241     0.4133    -6.5235 C.ar    
  17 C17            3.7336     1.6876    -6.0450 C.ar    
  18 O18            4.4361     0.9911     0.5281 O.2     
  19 O19            3.9792    -1.4651     0.4551 O.2     
  20 C20           -1.4748     1.8361    -0.4208 C.2     
  21 N21           -2.6896     1.3489    -0.5186 N.2     
  22 C22           -1.6189     3.2536    -0.4020 C.2     
  23 C23           -2.9529     3.4464    -0.4996 C.2     
  24 O24           -3.5154     2.2308    -0.5645 O.3     
  25 H25           -0.9809    -0.9201    -0.4256 H       
  26 H26            1.3908    -1.8189    -0.2755 H       
  27 H27            4.8694    -1.0266    -1.9465 H       
  28 H28            4.0119     4.0188    -4.7327 H       
  29 H29            4.4251     4.2677    -2.3462 H       
  30 H30            4.6208     2.2986    -0.8899 H       
  31 H31            3.6573    -1.6710    -6.0460 H       
  32 H32            3.4421     0.2442    -7.5745 H       
  33 H33            3.6409     2.5379    -6.7045 H       
  34 H34           -0.8424     4.0004    -0.3266 H       
  35 H35           -3.4670     4.3960    -0.5182 H       
@<TRIPOS>BOND
   1    1    2 2
   2    1    3 1
   3    1   20 1
   4    2    5 1
   5    2   25 1
   6    3    4 1
   7    4    5 2
   8    4    6 1
   9    5   26 1
  10    6    7 am
  11    6   18 2
  12    6   19 2
  13    7    8 1
  14    7   27 1
  15    8    9 ar
  16    8   13 ar
  17    9   10 ar
  18    9   14 ar
  19   10   11 ar
  20   10   17 ar
  21   11   12 ar
  22   11   28 1
  23   12   13 ar
  24   12   29 1
  25   13   30 1
  26   14   15 ar
  27   15   16 ar
  28   15   31 1
  29   16   17 ar
  30   16   32 1
  31   17   33 1
  32   20   21 2
  33   20   22 1
  34   21   24 1
  35   22   23 2
  36   22   34 1
  37   23   24 1
  38   23   35 1

#	End of record

