#	Name: ASD03240475
#	Creating user name:	WinNT
#	Creation time:	15. 06. 2019 20:35

#	Modifying user name:	WinNT
#	Modification time:	15. 06. 2019 20:35

#	Program:	/corina/corina34_cracker 3.40 0067  02.08.2006

@<TRIPOS>MOLECULE
ASD03240475
  51   53    0    0    0
SMALL
NO_CHARGES


@<TRIPOS>ATOM
   1 C1             0.0329     1.4788    -0.0440 C.ar    
   2 C2            -0.7193     4.0147     1.5254 C.ar    
   3 C3            -1.4730     2.8747     1.3124 C.ar    
   4 C4            -1.3328     2.1126     0.0198 C.3     
   5 C5            -0.8439     4.7165     2.7074 C.ar    
   6 C6            -1.7305     4.2746     3.6867 C.ar    
   7 C7            -2.4868     3.1255     3.4673 C.ar    
   8 C8            -2.3545     2.4313     2.2817 C.ar    
   9 C9            -1.8683     5.0252     4.9604 C.2     
  10 C10           -2.6937     4.7064     5.9988 C.2     
  11 N11           -2.5185     5.6360     6.9595 N.pl3   
  12 N12           -1.5625     6.5549     6.5099 N.2     
  13 C13           -1.1661     6.1924     5.3187 C.2     
  14 C14            0.1584     0.1029     0.0161 C.ar    
  15 C15            1.1574     2.2740    -0.1684 C.ar    
  16 C16            2.4100     1.6961    -0.2330 C.ar    
  17 C17            2.5397     0.3144    -0.1729 C.ar    
  18 C18            1.4081    -0.4815    -0.0479 C.ar    
  19 N19            3.8050    -0.2734    -0.2384 N.pl3   
  20 C20           -1.5054     3.0722    -1.1593 C.3     
  21 C21           -1.4876     2.2802    -2.4682 C.3     
  22 N22           -1.6533     3.2015    -3.6003 N.3     
  23 C23           -1.6410     2.4746    -4.8768 C.3     
  24 C24            4.9974     0.5675    -0.3707 C.3     
  25 C25            3.9399    -1.7308    -0.1749 C.3     
  26 H26           -0.0289     4.3540     0.7673 H       
  27 H27           -2.0963     1.3362    -0.0288 H       
  28 H28           -0.2547     5.6064     2.8729 H       
  29 H29           -3.1756     2.7787     4.2233 H       
  30 H30           -2.9406     1.5405     2.1103 H       
  31 H31           -3.3658     3.8622     6.0433 H       
  32 H32           -2.9760     5.6637     7.8144 H       
  33 H33           -0.4331     6.7029     4.7117 H       
  34 H34           -0.7218    -0.5152     0.1136 H       
  35 H35            1.0558     3.3482    -0.2154 H       
  36 H36            3.2878     2.3178    -0.3305 H       
  37 H37            1.5054    -1.5560    -0.0006 H       
  38 H38           -2.4563     3.5966    -1.0648 H       
  39 H39           -0.6901     3.7957    -1.1612 H       
  40 H40           -0.5367     1.7558    -2.5627 H       
  41 H41           -2.3028     1.5567    -2.4662 H       
  42 H42           -2.4968     3.7464    -3.5026 H       
  43 H43           -2.4573     1.7525    -4.8915 H       
  44 H44           -1.7654     3.1804    -5.6980 H       
  45 H45           -0.6911     1.9516    -4.9879 H       
  46 H46            5.3701     0.8278     0.6200 H       
  47 H47            5.7673     0.0228    -0.9170 H       
  48 H48            4.7418     1.4776    -0.9134 H       
  49 H49            3.8963    -2.1439    -1.1826 H       
  50 H50            4.8956    -1.9876     0.2821 H       
  51 H51            3.1282    -2.1450     0.4231 H       
@<TRIPOS>BOND
   1    1   14 ar
   2    1   15 ar
   3    1    4 1
   4    2    3 ar
   5    2    5 ar
   6    2   26 1
   7    3    4 1
   8    3    8 ar
   9    4   20 1
  10    4   27 1
  11    5    6 ar
  12    5   28 1
  13    6    7 ar
  14    6    9 1
  15    7    8 ar
  16    7   29 1
  17    8   30 1
  18    9   10 2
  19    9   13 1
  20   10   11 1
  21   10   31 1
  22   11   12 1
  23   11   32 1
  24   12   13 2
  25   13   33 1
  26   14   18 ar
  27   14   34 1
  28   15   16 ar
  29   15   35 1
  30   16   17 ar
  31   16   36 1
  32   17   18 ar
  33   17   19 1
  34   18   37 1
  35   19   24 1
  36   19   25 1
  37   20   21 1
  38   20   38 1
  39   20   39 1
  40   21   22 1
  41   21   40 1
  42   21   41 1
  43   22   23 1
  44   22   42 1
  45   23   43 1
  46   23   44 1
  47   23   45 1
  48   24   46 1
  49   24   47 1
  50   24   48 1
  51   25   49 1
  52   25   50 1
  53   25   51 1

#	End of record

