#	Name: ASD02508165
#	Creating user name:	WinNT
#	Creation time:	15. 06. 2019 20:23

#	Modifying user name:	WinNT
#	Modification time:	15. 06. 2019 20:23

#	Program:	/corina/corina34_cracker 3.40 0067  02.08.2006

@<TRIPOS>MOLECULE
ASD02508165
  32   34    0    0    0
SMALL
NO_CHARGES


@<TRIPOS>ATOM
   1 C1            -0.0457     1.1992    -0.3112 C.ar    
   2 C2             0.9765     1.6479     0.5466 C.ar    
   3 C3             0.1794     0.0915    -1.0979 C.ar    
   4 C4             1.4250    -0.5603    -1.0212 C.ar    
   5 C5             2.4124    -0.1118    -0.1792 C.ar    
   6 C6             2.1866     1.0025     0.6106 C.ar    
   7 S7            -1.6374     1.9197    -0.5093 S.3     
   8 C8            -2.3589     0.8647    -1.7075 C.2     
   9 S9            -1.1771    -0.3607    -2.1212 S.3     
  10 S10            3.9607    -0.9497    -0.1057 S.o2    
  11 N11            4.1019    -1.5861     1.4166 N.am    
  12 C12            3.1621    -2.5125     1.8766 C.ar    
  13 O13           -3.4798     0.9666    -2.1718 O.2     
  14 O14            3.8621    -2.0539    -0.9947 O.2     
  15 O15            4.9639     0.0505    -0.2171 O.2     
  16 C16            2.7787    -2.5111     3.2130 C.ar    
  17 C17            2.6049    -3.4327     0.9989 C.ar    
  18 C18            1.6757    -4.3470     1.4566 C.ar    
  19 C19            1.3002    -4.3467     2.7871 C.ar    
  20 C20            1.8489    -3.4283     3.6638 C.ar    
  21 C21            3.2638     1.5039     1.5377 C.3     
  22 Cl22           3.4676    -1.3590     4.3137 Cl      
  23 H23            0.8057     2.5163     1.1656 H       
  24 H24            1.6070    -1.4294    -1.6359 H       
  25 H25            4.8369    -1.3158     1.9890 H       
  26 H26            2.8972    -3.4336    -0.0408 H       
  27 H27            1.2418    -5.0626     0.7740 H       
  28 H28            0.5733    -5.0624     3.1418 H       
  29 H29            1.5536    -3.4311     4.7026 H       
  30 H30            3.9436     2.1538     0.9869 H       
  31 H31            2.8083     2.0634     2.3548 H       
  32 H32            3.8183     0.6571     1.9420 H       
@<TRIPOS>BOND
   1    1    2 ar
   2    1    3 ar
   3    1    7 1
   4    2    6 ar
   5    2   23 1
   6    3    4 ar
   7    3    9 1
   8    4    5 ar
   9    4   24 1
  10    5    6 ar
  11    5   10 1
  12    6   21 1
  13    7    8 1
  14    8    9 1
  15    8   13 2
  16   10   11 am
  17   10   14 2
  18   10   15 2
  19   11   12 1
  20   11   25 1
  21   12   16 ar
  22   12   17 ar
  23   16   22 1
  24   16   20 ar
  25   17   18 ar
  26   17   26 1
  27   18   19 ar
  28   18   27 1
  29   19   20 ar
  30   19   28 1
  31   20   29 1
  32   21   30 1
  33   21   31 1
  34   21   32 1

#	End of record

