#	Name: ASD01903292
#	Creating user name:	WinNT
#	Creation time:	15. 06. 2019 19:54

#	Modifying user name:	WinNT
#	Modification time:	15. 06. 2019 19:54

#	Program:	/corina/corina34_cracker 3.40 0067  02.08.2006

@<TRIPOS>MOLECULE
ASD01903292
  45   48    0    0    0
SMALL
NO_CHARGES


@<TRIPOS>ATOM
   1 C1             0.0877     1.2324     0.1215 C.ar    
   2 C2            -0.9191     1.3087    -0.8273 C.ar    
   3 C3            -0.8083     2.2226    -1.8639 C.ar    
   4 C4             0.3148     3.0330    -1.9134 C.ar    
   5 C5             1.2881     2.9018    -0.9251 C.ar    
   6 N6             1.1434     2.0137     0.0506 N.ar    
   7 C7             2.4945     3.7605    -0.9637 C.2     
   8 O8             2.6321     4.5753    -1.8549 O.2     
   9 N9             3.4395     3.6382    -0.0106 N.am    
  10 C10            4.6305     4.3662    -0.1087 C.ar    
  11 C11            4.6040     5.6870    -0.5380 C.ar    
  12 C12            5.7791     6.4047    -0.6347 C.ar    
  13 C13            6.9874     5.8067    -0.3029 C.ar    
  14 C14            7.0142     4.4866     0.1263 C.ar    
  15 C15            5.8389     3.7700     0.2287 C.ar    
  16 N16            8.1822     6.5348    -0.4069 N.am    
  17 C17           10.4239     7.1105    -0.2037 C.3     
  18 C18            9.6663     8.2281    -0.9069 C.3     
  19 C19            8.2171     7.8513    -0.6876 C.2     
  20 O20            7.2635     8.5970    -0.7529 O.2     
  21 C21           11.2585     8.8163     1.4643 C.3     
  22 C22           10.1509     9.7789     1.0217 C.3     
  23 C23            9.9706     9.6353    -0.4852 C.3     
  24 C24           10.7737     7.3900     1.2451 C.3     
  25 C25            9.3947     5.9819    -0.2297 C.2     
  26 O26            9.6295     4.7985    -0.1112 O.2     
  27 H27            0.0024     0.5247     0.9328 H       
  28 H28           -1.7817     0.6623    -0.7602 H       
  29 H29           -1.5795     2.3010    -2.6159 H       
  30 H30            0.4341     3.7558    -2.7070 H       
  31 H31            3.2940     3.0456     0.7434 H       
  32 H32            3.6642     6.1521    -0.7965 H       
  33 H33            5.7586     7.4315    -0.9689 H       
  34 H34            7.9543     4.0216     0.3840 H       
  35 H35            5.8598     2.7431     0.5625 H       
  36 H36           11.3186     6.8439    -0.7663 H       
  37 H37            9.8729     8.1545    -1.9746 H       
  38 H38           12.1561     8.9933     0.8717 H       
  39 H39           11.4773     8.9706     2.5209 H       
  40 H40            9.2198     9.5266     1.5292 H       
  41 H41           10.4358    10.8031     1.2621 H       
  42 H42           10.8855     9.9601    -0.9806 H       
  43 H43            9.1530    10.2818    -0.8040 H       
  44 H44            9.8901     7.2197     1.8602 H       
  45 H45           11.5569     6.6996     1.5581 H       
@<TRIPOS>BOND
   1    1    2 ar
   2    1    6 ar
   3    1   27 1
   4    2    3 ar
   5    2   28 1
   6    3    4 ar
   7    3   29 1
   8    4    5 ar
   9    4   30 1
  10    5    6 ar
  11    5    7 1
  12    7    8 2
  13    7    9 am
  14    9   10 1
  15    9   31 1
  16   10   11 ar
  17   10   15 ar
  18   11   12 ar
  19   11   32 1
  20   12   13 ar
  21   12   33 1
  22   13   14 ar
  23   13   16 1
  24   14   15 ar
  25   14   34 1
  26   15   35 1
  27   16   25 am
  28   16   19 am
  29   17   18 1
  30   17   24 1
  31   17   25 1
  32   17   36 1
  33   18   19 1
  34   18   23 1
  35   18   37 1
  36   19   20 2
  37   21   22 1
  38   21   24 1
  39   21   38 1
  40   21   39 1
  41   22   23 1
  42   22   40 1
  43   22   41 1
  44   23   42 1
  45   23   43 1
  46   24   44 1
  47   24   45 1
  48   25   26 2

#	End of record

