#	Name: ASD06020183
#	Creating user name:	WinNT
#	Creation time:	15. 06. 2019 21:04

#	Modifying user name:	WinNT
#	Modification time:	15. 06. 2019 21:04

#	Program:	/corina/corina34_cracker 3.40 0067  02.08.2006

@<TRIPOS>MOLECULE
ASD06020183
  25   27    0    0    0
SMALL
NO_CHARGES


@<TRIPOS>ATOM
   1 C1             0.7813     1.0063     1.7642 C.ar    
   2 C2             0.4746    -0.2448     1.2391 C.ar    
   3 C3             0.3695    -0.4059    -0.1499 C.ar    
   4 C4             0.5874     0.7436    -0.9493 C.ar    
   5 C5             0.8831     1.9300    -0.3469 C.ar    
   6 N6             0.9731     2.0370     0.9684 N.ar    
   7 S7             0.1632    -1.8007     2.0009 S.3     
   8 C8            -0.0802    -2.5366     0.4219 C.2     
   9 N9             0.0714    -1.6550    -0.5110 N.2     
  10 F10            0.5034     0.6643    -2.2954 F       
  11 C11           -0.4108    -3.9595     0.1944 C.ar    
  12 C12            0.6092    -4.9061     0.0733 C.ar    
  13 C13            0.2928    -6.2334    -0.1391 C.ar    
  14 C14           -1.0305    -6.6254    -0.2322 C.ar    
  15 C15           -2.0450    -5.6923    -0.1135 C.ar    
  16 C16           -1.7432    -4.3639     0.1056 C.ar    
  17 N17           -2.8307    -3.3686     0.2389 N.pl3   
  18 O18           -3.9925    -3.7340     0.2526 O.2     
  19 O19           -2.5638    -2.1841     0.3350 O.2     
  20 Cl20           2.2703    -4.4151     0.1888 Cl      
  21 H21            0.8583     1.1340     2.8338 H       
  22 H22            1.0490     2.8043    -0.9589 H       
  23 H23            1.0801    -6.9667    -0.2331 H       
  24 H24           -1.2728    -7.6646    -0.3988 H       
  25 H25           -3.0760    -6.0052    -0.1879 H       
@<TRIPOS>BOND
   1    1    2 ar
   2    1    6 ar
   3    1   21 1
   4    2    3 ar
   5    2    7 1
   6    3    4 ar
   7    3    9 1
   8    4    5 ar
   9    4   10 1
  10    5    6 ar
  11    5   22 1
  12    7    8 1
  13    8    9 2
  14    8   11 1
  15   11   12 ar
  16   11   16 ar
  17   12   13 ar
  18   12   20 1
  19   13   14 ar
  20   13   23 1
  21   14   15 ar
  22   14   24 1
  23   15   16 ar
  24   15   25 1
  25   16   17 1
  26   17   18 2
  27   17   19 2

#	End of record

