#	Name: ASD01901580
#	Creating user name:	WinNT
#	Creation time:	15. 06. 2019 19:54

#	Modifying user name:	WinNT
#	Modification time:	15. 06. 2019 19:54

#	Program:	/corina/corina34_cracker 3.40 0067  02.08.2006

@<TRIPOS>MOLECULE
ASD01901580
  53   57    0    0    0
SMALL
NO_CHARGES


@<TRIPOS>ATOM
   1 C1            -0.0178     1.4608     0.0101 C.3     
   2 N2             0.0021    -0.0041     0.0020 N.am    
   3 C3             0.0055    -0.6598    -1.1698 C.2     
   4 O4             0.0985    -0.0270    -2.2033 O.2     
   5 N5            -0.0910    -1.9985    -1.2274 N.am    
   6 C6            -0.4344    -2.7154    -0.1417 C.2     
   7 O7            -0.4389    -3.9268    -0.1912 O.2     
   8 C8            -0.8130    -2.0112     1.1370 C.3     
   9 C9             0.0240    -0.7330     1.2720 C.3     
  10 C10           -0.5660     0.1470     2.3756 C.3     
  11 O11            0.3584     1.2044     2.6556 O.3     
  12 C12            1.5384     0.7561     3.3216 C.3     
  13 C13            2.1540    -0.3970     2.5724 C.ar    
  14 C14            3.4619    -0.7551     2.8591 C.ar    
  15 C15            4.0572    -1.8092     2.1946 C.ar    
  16 C16            3.3464    -2.5113     1.2395 C.ar    
  17 C17            2.0435    -2.1546     0.9519 C.ar    
  18 C18            1.4463    -1.0959     1.6167 C.ar    
  19 C19            0.1694    -2.6586    -2.4371 C.ar    
  20 C20           -0.8636    -2.8832    -3.3415 C.ar    
  21 F21           -2.1157    -2.4657    -3.0529 F       
  22 C22           -0.6109    -3.5315    -4.5332 C.ar    
  23 C23            0.6849    -3.9632    -4.8309 C.ar    
  24 C24            1.7203    -3.7362    -3.9196 C.ar    
  25 C25            1.4613    -3.0821    -2.7324 C.ar    
  26 F26            2.4625    -2.8570    -1.8538 F       
  27 C27            0.9509    -4.6367    -6.0663 C.1     
  28 C28            1.1690    -5.1889    -7.0791 C.1     
  29 C29            1.4350    -5.8625    -8.3145 C.ar    
  30 C30            0.4060    -6.0907    -9.2379 C.ar    
  31 C31            0.7164    -6.7455   -10.4165 C.ar    
  32 C32            2.0195    -7.1500   -10.6439 C.ar    
  33 N33            2.9691    -6.9223    -9.7565 N.ar    
  34 C34            2.7265    -6.2985    -8.6228 C.ar    
  35 H35            1.0048     1.8381     0.0023 H       
  36 H36           -0.5450     1.8219    -0.8730 H       
  37 H37           -0.5280     1.8123     0.9069 H       
  38 H38           -1.8723    -1.7557     1.1122 H       
  39 H39           -0.6150    -2.6658     1.9858 H       
  40 H40           -1.5139     0.5683     2.0408 H       
  41 H41           -0.7238    -0.4491     3.2744 H       
  42 H42            2.2554     1.5752     3.3761 H       
  43 H43            1.2830     0.4352     4.3316 H       
  44 H44            4.0180    -0.2072     3.6054 H       
  45 H45            5.0769    -2.0842     2.4205 H       
  46 H46            3.8089    -3.3369     0.7191 H       
  47 H47            1.4882    -2.7028     0.2052 H       
  48 H48           -1.4133    -3.7056    -5.2348 H       
  49 H49            2.7226    -4.0683    -4.1464 H       
  50 H50           -0.6032    -5.7643    -9.0347 H       
  51 H51           -0.0510    -6.9390   -11.1514 H       
  52 H52            2.2638    -7.6612   -11.5634 H       
  53 H53            3.5312    -6.1261    -7.9234 H       
@<TRIPOS>BOND
   1    1    2 1
   2    1   35 1
   3    1   36 1
   4    1   37 1
   5    2    9 1
   6    2    3 am
   7    3    4 2
   8    3    5 am
   9    5    6 am
  10    5   19 1
  11    6    7 2
  12    6    8 1
  13    8    9 1
  14    8   38 1
  15    8   39 1
  16    9   18 1
  17    9   10 1
  18   10   11 1
  19   10   40 1
  20   10   41 1
  21   11   12 1
  22   12   13 1
  23   12   42 1
  24   12   43 1
  25   13   18 ar
  26   13   14 ar
  27   14   15 ar
  28   14   44 1
  29   15   16 ar
  30   15   45 1
  31   16   17 ar
  32   16   46 1
  33   17   18 ar
  34   17   47 1
  35   19   25 ar
  36   19   20 ar
  37   20   21 1
  38   20   22 ar
  39   22   23 ar
  40   22   48 1
  41   23   24 ar
  42   23   27 1
  43   24   25 ar
  44   24   49 1
  45   25   26 1
  46   27   28 3
  47   28   29 1
  48   29   34 ar
  49   29   30 ar
  50   30   31 ar
  51   30   50 1
  52   31   32 ar
  53   31   51 1
  54   32   33 ar
  55   32   52 1
  56   33   34 ar
  57   34   53 1

#	End of record

