#	Name: ASD01910083
#	Creating user name:	WinNT
#	Creation time:	15. 06. 2019 19:55

#	Modifying user name:	WinNT
#	Modification time:	15. 06. 2019 19:55

#	Program:	/corina/corina34_cracker 3.40 0067  02.08.2006

@<TRIPOS>MOLECULE
ASD01910083
  28   29    0    0    0
SMALL
NO_CHARGES


@<TRIPOS>ATOM
   1 C1            -0.0158     1.3144     0.0093 C.ar    
   2 N2             0.0021    -0.0041     0.0020 N.ar    
   3 C3             1.1439    -0.6688    -0.0124 C.ar    
   4 C4             2.3462     0.0505    -0.0200 C.ar    
   5 C5             2.2776     1.4498    -0.0119 C.ar    
   6 N6             1.0910     2.0310     0.0025 N.ar    
   7 C7             3.6087    -0.6251    -0.0352 C.1     
   8 C8             4.6438    -1.1789    -0.0477 C.1     
   9 C9             5.9063    -1.8545    -0.0629 C.ar    
  10 C10            7.0951    -1.1206    -0.0703 C.ar    
  11 C11            8.3076    -1.7782    -0.0849 C.ar    
  12 C12            8.3482    -3.1612    -0.0928 C.ar    
  13 C13            7.1747    -3.8949    -0.0860 C.ar    
  14 C14            5.9553    -3.2512    -0.0646 C.ar    
  15 C15            7.0529     0.3858    -0.0627 C.3     
  16 C16            7.2297    -5.4008    -0.0957 C.3     
  17 H17           -0.9680     1.8239     0.0165 H       
  18 H18            1.1503    -1.7488    -0.0179 H       
  19 H19            3.1797     2.0437    -0.0169 H       
  20 H20            9.2274    -1.2122    -0.0907 H       
  21 H21            9.3004    -3.6707    -0.1047 H       
  22 H22            5.0404    -3.8250    -0.0590 H       
  23 H23            7.0522     0.7441     0.9667 H       
  24 H24            7.9277     0.7764    -0.5827 H       
  25 H25            6.1485     0.7265    -0.5667 H       
  26 H26            7.2528    -5.7701     0.9296 H       
  27 H27            6.3487    -5.7933    -0.6035 H       
  28 H28            8.1274    -5.7283    -0.6201 H       
@<TRIPOS>BOND
   1    1    2 ar
   2    1    6 ar
   3    1   17 1
   4    2    3 ar
   5    3    4 ar
   6    3   18 1
   7    4    5 ar
   8    4    7 1
   9    5    6 ar
  10    5   19 1
  11    7    8 3
  12    8    9 1
  13    9   10 ar
  14    9   14 ar
  15   10   11 ar
  16   10   15 1
  17   11   12 ar
  18   11   20 1
  19   12   13 ar
  20   12   21 1
  21   13   14 ar
  22   13   16 1
  23   14   22 1
  24   15   23 1
  25   15   24 1
  26   15   25 1
  27   16   26 1
  28   16   27 1
  29   16   28 1

#	End of record

