#	Name: ASD01917939
#	Creating user name:	WinNT
#	Creation time:	15. 06. 2019 20:10

#	Modifying user name:	WinNT
#	Modification time:	15. 06. 2019 20:10

#	Program:	/corina/corina34_cracker 3.40 0067  02.08.2006

@<TRIPOS>MOLECULE
ASD01917939
  37   39    0    0    0
SMALL
NO_CHARGES


@<TRIPOS>ATOM
   1 C1            -0.1240     1.2285    -0.0886 C.ar    
   2 C2            -0.2495    -0.0064    -0.7116 C.ar    
   3 C3             0.8458    -0.8416    -0.8290 C.ar    
   4 C4             2.0717    -0.4537    -0.3276 C.ar    
   5 C5             2.2078     0.7856     0.3003 C.ar    
   6 C6             1.1013     1.6276     0.4181 C.ar    
   7 O7            -1.2029     2.0477     0.0189 O.3     
   8 C8            -2.0021     1.9105     1.1095 C.ar    
   9 C9             3.5191     1.2042     0.8388 C.2     
  10 N10            3.6477     2.4013     1.4446 N.am    
  11 O11            4.4814     0.4688     0.7354 O.2     
  12 C12            4.8799     2.7946     1.9507 C.2     
  13 N13            5.1104     3.9189     2.5538 N.2     
  14 S14            6.3119     1.8636     1.8756 S.3     
  15 C15            7.1963     3.1369     2.7123 C.2     
  16 C16            6.3442     4.1304     2.9723 C.2     
  17 C17            6.7566     5.3909     3.6879 C.3     
  18 N18           -3.9334     2.4756     2.3021 N.ar    
  19 C19           -3.1825     2.6376     1.2252 C.ar    
  20 C20           -1.6639     1.0350     2.1364 C.ar    
  21 N21           -2.4684     0.9295     3.1811 N.ar    
  22 C22           -3.5761     1.6397     3.2563 C.ar    
  23 C23            0.7007    -2.1801    -1.5060 C.3     
  24 F24           -0.6227    -2.3486    -1.9271 F       
  25 F25            1.5534    -2.2372    -2.6137 F       
  26 F26            1.0367    -3.1969    -0.6059 F       
  27 H27           -1.2064    -0.3155    -1.1056 H       
  28 H28            2.9253    -1.1088    -0.4207 H       
  29 H29            1.2004     2.5878     0.9025 H       
  30 H30            2.8798     2.9881     1.5271 H       
  31 H31            8.2442     3.1155     2.9727 H       
  32 H32            6.6255     5.2585     4.7619 H       
  33 H33            7.8038     5.6045     3.4733 H       
  34 H34            6.1390     6.2214     3.3461 H       
  35 H35           -3.4813     3.3246     0.4472 H       
  36 H36           -0.7579     0.4497     2.0812 H       
  37 H37           -4.2112     1.5306     4.1230 H       
@<TRIPOS>BOND
   1    1    2 ar
   2    1    6 ar
   3    1    7 1
   4    2    3 ar
   5    2   27 1
   6    3    4 ar
   7    3   23 1
   8    4    5 ar
   9    4   28 1
  10    5    6 ar
  11    5    9 1
  12    6   29 1
  13    7    8 1
  14    8   20 ar
  15    8   19 ar
  16    9   10 am
  17    9   11 2
  18   10   12 1
  19   10   30 1
  20   12   14 1
  21   12   13 2
  22   13   16 1
  23   14   15 1
  24   15   16 2
  25   15   31 1
  26   16   17 1
  27   17   32 1
  28   17   33 1
  29   17   34 1
  30   18   19 ar
  31   18   22 ar
  32   19   35 1
  33   20   21 ar
  34   20   36 1
  35   21   22 ar
  36   22   37 1
  37   23   24 1
  38   23   25 1
  39   23   26 1

#	End of record

