#	Name: ASD01940354
#	Creating user name:	WinNT
#	Creation time:	15. 06. 2019 20:12

#	Modifying user name:	WinNT
#	Modification time:	15. 06. 2019 20:12

#	Program:	/corina/corina34_cracker 3.40 0067  02.08.2006

@<TRIPOS>MOLECULE
ASD01940354
  37   39    0    0    0
SMALL
NO_CHARGES


@<TRIPOS>ATOM
   1 C1             2.1798     3.3933     3.3178 C.3     
   2 C2             2.9842     2.6344     4.3752 C.3     
   3 C3             3.6829     3.1796     3.1280 C.3     
   4 S4             1.0576     2.4296     2.2679 S.o2    
   5 O5             1.7879     1.5011     1.4781 O.2     
   6 O6            -0.0883     2.0236     3.0037 O.2     
   7 N7             0.4726     3.5258     1.1731 N.am    
   8 C8             1.3550     4.2084     0.3254 C.ar    
   9 C9             1.1076     5.5374    -0.0165 C.ar    
  10 C10            1.9853     6.2088    -0.8568 C.ar    
  11 C11            3.1034     5.5569    -1.3528 C.ar    
  12 C12            3.3467     4.2377    -1.0119 C.ar    
  13 C13            2.4788     3.5655    -0.1705 C.ar    
  14 F14            3.9572     6.2103    -2.1709 F       
  15 F15            1.7495     7.4963    -1.1912 F       
  16 N16           -0.0242     6.1934     0.4864 N.pl3   
  17 C17            0.0833     6.9999     1.6170 C.ar    
  18 C18           -1.0625     7.5478     2.1921 C.ar    
  19 C19           -0.9587     8.3455     3.3107 C.ar    
  20 C20            0.2977     8.6046     3.8681 C.ar    
  21 C21            1.4436     8.0532     3.2882 C.ar    
  22 C22            1.3330     7.2523     2.1734 C.ar    
  23 F23           -2.2751     7.2969     1.6520 F       
  24 C24            0.4098     9.4336     5.0304 C.1     
  25 N25            0.4987    10.0912     5.9524 N.1     
  26 H26            1.8421     4.3990     3.5683 H       
  27 H27            3.1757     3.1408     5.3212 H       
  28 H28            2.8391     1.5560     4.4398 H       
  29 H29            3.9974     2.4600     2.3721 H       
  30 H30            4.3340     4.0447     3.2535 H       
  31 H31           -0.4809     3.6953     1.1187 H       
  32 H32            4.2189     3.7331    -1.4007 H       
  33 H33            2.6746     2.5376     0.0971 H       
  34 H34           -0.8823     6.0857     0.0472 H       
  35 H35           -1.8461     8.7704     3.7562 H       
  36 H36            2.4150     8.2519     3.7164 H       
  37 H37            2.2182     6.8230     1.7279 H       
@<TRIPOS>BOND
   1    1    2 1
   2    1    3 1
   3    1    4 1
   4    1   26 1
   5    2    3 1
   6    2   27 1
   7    2   28 1
   8    3   29 1
   9    3   30 1
  10    4    5 2
  11    4    6 2
  12    4    7 am
  13    7    8 1
  14    7   31 1
  15    8    9 ar
  16    8   13 ar
  17    9   10 ar
  18    9   16 1
  19   10   11 ar
  20   10   15 1
  21   11   12 ar
  22   11   14 1
  23   12   13 ar
  24   12   32 1
  25   13   33 1
  26   16   17 1
  27   16   34 1
  28   17   18 ar
  29   17   22 ar
  30   18   19 ar
  31   18   23 1
  32   19   20 ar
  33   19   35 1
  34   20   21 ar
  35   20   24 1
  36   21   22 ar
  37   21   36 1
  38   22   37 1
  39   24   25 3

#	End of record

