#	Name: ASD01940604
#	Creating user name:	WinNT
#	Creation time:	15. 06. 2019 20:12

#	Modifying user name:	WinNT
#	Modification time:	15. 06. 2019 20:12

#	Program:	/corina/corina34_cracker 3.40 0067  02.08.2006

@<TRIPOS>MOLECULE
ASD01940604
  45   47    0    0    0
SMALL
NO_CHARGES


@<TRIPOS>ATOM
   1 C1             0.2451     1.4407    -0.1593 C.ar    
   2 C2            -0.0653     0.0707    -0.2003 C.ar    
   3 C3             0.9601    -0.8442    -0.3902 C.ar    
   4 N4             2.2083    -0.4460    -0.5310 N.ar    
   5 C5             2.5486     0.8252    -0.4998 C.ar    
   6 C6             1.5916     1.8170    -0.3143 C.ar    
   7 N7             1.9591     3.1565    -0.2831 N.pl3   
   8 C8             3.2613     3.5163     0.0799 C.ar    
   9 C9            -0.8092     2.4529     0.0342 C.2     
  10 O10           -1.1114     2.8091     1.1569 O.2     
  11 N11           -1.4380     2.9835    -1.0332 N.am    
  12 O12           -1.3467    -0.3504    -0.0560 O.3     
  13 C13           -1.5764    -1.6886    -0.0036 C.ar    
  14 C14            4.0349     2.6519     0.8430 C.ar    
  15 C15            5.3206     3.0095     1.1997 C.ar    
  16 C16            5.8387     4.2277     0.7983 C.ar    
  17 C17            5.0717     5.0926     0.0384 C.ar    
  18 C18            3.7861     4.7383    -0.3275 C.ar    
  19 I19            7.7891     4.7645     1.3432 I       
  20 F20            3.0388     5.5804    -1.0743 F       
  21 C21           -1.6277    -2.3363     1.2213 C.ar    
  22 C22           -1.8629    -3.7028     1.2713 C.ar    
  23 C23           -2.0463    -4.4178     0.0942 C.ar    
  24 C24           -1.9945    -3.7692    -1.1242 C.ar    
  25 C25           -1.7656    -2.4072    -1.1758 C.ar    
  26 N26           -1.9150    -4.3600     2.5054 N.am    
  27 C27           -2.4822    -3.7548     3.5678 C.2     
  28 C28           -2.6145    -4.4941     4.8743 C.3     
  29 O29           -2.8861    -2.6152     3.4723 O.2     
  30 H30            0.7318    -1.8993    -0.4228 H       
  31 H31            3.5856     1.1018    -0.6200 H       
  32 H32            1.3127     3.8423    -0.5131 H       
  33 H33           -1.1970     2.6994    -1.9288 H       
  34 H34           -2.1317     3.6495    -0.9059 H       
  35 H35            3.6316     1.7007     1.1577 H       
  36 H36            5.9222     2.3370     1.7932 H       
  37 H37            5.4789     6.0431    -0.2731 H       
  38 H38           -1.4845    -1.7782     2.1348 H       
  39 H39           -2.2291    -5.4815     0.1320 H       
  40 H40           -2.1373    -4.3267    -2.0380 H       
  41 H41           -1.7297    -1.9021    -2.1298 H       
  42 H42           -1.5428    -5.2511     2.5965 H       
  43 H43           -2.1991    -5.4963     4.7683 H       
  44 H44           -2.0726    -3.9566     5.6524 H       
  45 H45           -3.6674    -4.5643     5.1470 H       
@<TRIPOS>BOND
   1    1    2 ar
   2    1    6 ar
   3    1    9 1
   4    2    3 ar
   5    2   12 1
   6    3    4 ar
   7    3   30 1
   8    4    5 ar
   9    5    6 ar
  10    5   31 1
  11    6    7 1
  12    7    8 1
  13    7   32 1
  14    8   14 ar
  15    8   18 ar
  16    9   10 2
  17    9   11 am
  18   11   33 1
  19   11   34 1
  20   12   13 1
  21   13   21 ar
  22   13   25 ar
  23   14   15 ar
  24   14   35 1
  25   15   16 ar
  26   15   36 1
  27   16   17 ar
  28   16   19 1
  29   17   18 ar
  30   17   37 1
  31   18   20 1
  32   21   22 ar
  33   21   38 1
  34   22   23 ar
  35   22   26 1
  36   23   24 ar
  37   23   39 1
  38   24   25 ar
  39   24   40 1
  40   25   41 1
  41   26   27 am
  42   26   42 1
  43   27   28 1
  44   27   29 2
  45   28   43 1
  46   28   44 1
  47   28   45 1

#	End of record

