#	Name: ASD01812995
#	Creating user name:	WinNT
#	Creation time:	15. 06. 2019 19:29

#	Modifying user name:	WinNT
#	Modification time:	15. 06. 2019 19:29

#	Program:	/corina/corina34_cracker 3.40 0067  02.08.2006

@<TRIPOS>MOLECULE
ASD01812995
  50   54    0    0    0
SMALL
NO_CHARGES


@<TRIPOS>ATOM
   1 N1             0.0026     1.3185    -0.2219 N.ar    
   2 C2             0.0318     0.0058    -0.3456 C.ar    
   3 C3             1.2339    -0.6842    -0.3687 C.ar    
   4 C4             2.4113     0.0206    -0.2603 C.ar    
   5 C5             2.3614     1.4133    -0.1298 C.ar    
   6 C6             1.1073     2.0396    -0.1145 C.ar    
   7 C7             3.8681    -0.3579    -0.2449 C.3     
   8 N8             4.6152     0.8977    -0.0993 N.am    
   9 C9             3.7395     1.9164    -0.0334 C.2     
  10 C10            6.0736     1.0206    -0.0366 C.3     
  11 C11            6.6231     1.1973    -1.4287 C.ar    
  12 O12            1.0259     3.3855     0.0104 O.3     
  13 O13            4.0443     3.0872     0.0877 O.2     
  14 C14            6.7694     2.4677    -1.9557 C.ar    
  15 C15            7.2721     2.6353    -3.2301 C.ar    
  16 C16            7.6326     1.5218    -3.9860 C.ar    
  17 C17            7.4831     0.2444    -3.4503 C.ar    
  18 C18            6.9847     0.0886    -2.1726 C.ar    
  19 C19            8.1733     1.6958    -5.3572 C.2     
  20 C20           -0.2022     3.9617    -0.0794 C.ar    
  21 C21           -1.0080     4.0610     1.0476 C.ar    
  22 N22            8.3674     2.8426    -5.9733 N.2     
  23 C23            8.5751     0.6632    -6.2267 C.2     
  24 C24            9.0061     1.2319    -7.3737 C.2     
  25 N25            8.8942     2.5712    -7.2425 N.pl3   
  26 C26            9.2557     3.5673    -8.2542 C.3     
  27 C27           -0.6499     4.4565    -1.2951 C.ar    
  28 C28           -1.8983     5.0425    -1.3853 C.ar    
  29 C29           -2.7028     5.1369    -0.2654 C.ar    
  30 C30           -2.2583     4.6491     0.9522 C.ar    
  31 F31           -0.5732     3.5843     2.2345 F       
  32 F32           -3.0444     4.7465     2.0467 F       
  33 H33           -0.8960    -0.5406    -0.4298 H       
  34 H34            1.2465    -1.7594    -0.4700 H       
  35 H35            4.0752    -1.0172     0.5981 H       
  36 H36            4.1379    -0.8484    -1.1802 H       
  37 H37            6.3396     1.8853     0.5714 H       
  38 H38            6.4954     0.1196     0.4088 H       
  39 H39            6.4894     3.3302    -1.3690 H       
  40 H40            7.3856     3.6277    -3.6408 H       
  41 H41            7.7606    -0.6221    -4.0321 H       
  42 H42            6.8725    -0.9009    -1.7547 H       
  43 H43            8.5443    -0.3953    -6.0140 H       
  44 H44            9.3807     0.7079    -8.2405 H       
  45 H45           10.2971     3.8599    -8.1201 H       
  46 H46            9.1234     3.1400    -9.2482 H       
  47 H47            8.6156     4.4429    -8.1469 H       
  48 H48           -0.0228     4.3842    -2.1714 H       
  49 H49           -2.2457     5.4278    -2.3326 H       
  50 H50           -3.6778     5.5954    -0.3390 H       
@<TRIPOS>BOND
   1    1    2 ar
   2    1    6 ar
   3    2    3 ar
   4    2   33 1
   5    3    4 ar
   6    3   34 1
   7    4    7 1
   8    4    5 ar
   9    5    6 ar
  10    5    9 1
  11    6   12 1
  12    7    8 1
  13    7   35 1
  14    7   36 1
  15    8    9 am
  16    8   10 1
  17    9   13 2
  18   10   11 1
  19   10   37 1
  20   10   38 1
  21   11   14 ar
  22   11   18 ar
  23   12   20 1
  24   14   15 ar
  25   14   39 1
  26   15   16 ar
  27   15   40 1
  28   16   17 ar
  29   16   19 1
  30   17   18 ar
  31   17   41 1
  32   18   42 1
  33   19   23 1
  34   19   22 2
  35   20   27 ar
  36   20   21 ar
  37   21   30 ar
  38   21   31 1
  39   22   25 1
  40   23   24 2
  41   23   43 1
  42   24   25 1
  43   24   44 1
  44   25   26 1
  45   26   45 1
  46   26   46 1
  47   26   47 1
  48   27   28 ar
  49   27   48 1
  50   28   29 ar
  51   28   49 1
  52   29   30 ar
  53   29   50 1
  54   30   32 1

#	End of record

