#	Name: ASD01916337
#	Creating user name:	WinNT
#	Creation time:	15. 06. 2019 20:07

#	Modifying user name:	WinNT
#	Modification time:	15. 06. 2019 20:07

#	Program:	/corina/corina34_cracker 3.40 0067  02.08.2006

@<TRIPOS>MOLECULE
ASD01916337
  37   39    0    0    0
SMALL
NO_CHARGES


@<TRIPOS>ATOM
   1 C1            -0.0169     1.3974     0.0097 C.ar    
   2 C2             0.0021    -0.0041     0.0020 C.ar    
   3 C3             1.2365    -0.6676    -0.0133 C.ar    
   4 N4             2.3606     0.0097    -0.0204 N.ar    
   5 C5             2.3777     1.3384    -0.0135 C.ar    
   6 C6             1.1902     2.0701     0.0018 C.ar    
   7 C7            -1.2220    -0.7472     0.0102 C.1     
   8 C8            -2.2255    -1.3564     0.0169 C.1     
   9 C9            -3.4496    -2.0995     0.0250 C.ar    
  10 C10            3.6742     2.0515    -0.0220 C.2     
  11 O11            3.6994     3.2666    -0.0157 O.2     
  12 N12            4.8271     1.3536    -0.0368 N.am    
  13 C13           -3.4419    -3.5013     0.0175 C.ar    
  14 C14           -4.6446    -4.1758     0.0263 C.ar    
  15 N15           -5.7896    -3.5202     0.0416 N.ar    
  16 C16           -5.8429    -2.2017     0.0492 C.ar    
  17 C17           -4.6895    -1.4460     0.0468 C.ar    
  18 C18            6.1107     2.0596    -0.0452 C.3     
  19 C19            6.2116     3.1296     1.0437 C.3     
  20 C20            7.3337     1.1258    -0.1150 C.3     
  21 O21            7.8534     2.0643    -1.0783 O.3     
  22 C22            6.5419     2.5495    -1.4405 C.3     
  23 H23           -0.9518     1.9381     0.0171 H       
  24 H24            1.2630    -1.7473    -0.0190 H       
  25 H25            1.2139     3.1498     0.0074 H       
  26 H26            4.8069     0.3838    -0.0418 H       
  27 H27           -2.5086    -4.0446     0.0045 H       
  28 H28           -4.6494    -5.2558     0.0202 H       
  29 H29           -6.8032    -1.7077     0.0614 H       
  30 H30           -4.7407    -0.3672     0.0534 H       
  31 H31            6.2690     2.6495     2.0206 H       
  32 H32            7.1065     3.7303     0.8810 H       
  33 H33            5.3313     3.7712     1.0054 H       
  34 H34            7.9076     1.0808     0.8106 H       
  35 H35            7.1146     0.1425    -0.5311 H       
  36 H36            6.0800     2.0012    -2.2615 H       
  37 H37            6.4910     3.6311    -1.5659 H       
@<TRIPOS>BOND
   1    1    2 ar
   2    1    6 ar
   3    1   23 1
   4    2    3 ar
   5    2    7 1
   6    3    4 ar
   7    3   24 1
   8    4    5 ar
   9    5    6 ar
  10    5   10 1
  11    6   25 1
  12    7    8 3
  13    8    9 1
  14    9   13 ar
  15    9   17 ar
  16   10   11 2
  17   10   12 am
  18   12   18 1
  19   12   26 1
  20   13   14 ar
  21   13   27 1
  22   14   15 ar
  23   14   28 1
  24   15   16 ar
  25   16   17 ar
  26   16   29 1
  27   17   30 1
  28   18   19 1
  29   18   20 1
  30   18   22 1
  31   19   31 1
  32   19   32 1
  33   19   33 1
  34   20   21 1
  35   20   34 1
  36   20   35 1
  37   21   22 1
  38   22   36 1
  39   22   37 1

#	End of record

