#	Name: ASD01870406
#	Creating user name:	WinNT
#	Creation time:	15. 06. 2019 19:39

#	Modifying user name:	WinNT
#	Modification time:	15. 06. 2019 19:39

#	Program:	/corina/corina34_cracker 3.40 0067  02.08.2006

@<TRIPOS>MOLECULE
ASD01870406
  35   37    0    0    0
SMALL
NO_CHARGES


@<TRIPOS>ATOM
   1 C1            -0.0162     1.3436     0.0094 C.2     
   2 N2            -0.0014     0.2876    -0.8280 N.am    
   3 O3             0.9725     1.6190     0.6554 O.2     
   4 C4             1.1734    -0.4204    -1.0303 C.2     
   5 O5             2.3562    -0.1559    -0.4541 O.3     
   6 C6             3.2460    -1.0658    -0.9049 C.2     
   7 C7             2.5927    -1.8755    -1.7523 C.2     
   8 N8             1.3128    -1.4623    -1.8112 N.2     
   9 C9            -1.2593     2.1856     0.1384 C.3     
  10 C10           -2.0496     1.7246     1.3350 C.ar    
  11 C11           -2.6442     2.6025     2.2137 C.ar    
  12 C12           -2.5470     4.0974     2.0564 C.3     
  13 C13           -2.1162     4.4612     0.6369 C.3     
  14 C14           -0.8606     3.6521     0.2907 C.3     
  15 C15           -2.1722     0.3567     1.5411 C.ar    
  16 C16           -2.8873    -0.1291     2.6165 C.ar    
  17 C17           -3.4872     0.7521     3.4963 C.ar    
  18 C18           -3.3650     2.1115     3.2943 C.ar    
  19 C19            3.1846    -3.0424    -2.5000 C.3     
  20 H20           -0.8127     0.0230    -1.2891 H       
  21 H21            4.2895    -1.1300    -0.6339 H       
  22 H22           -1.8664     2.0701    -0.7595 H       
  23 H23           -3.5195     4.5445     2.2626 H       
  24 H24           -1.8157     4.4866     2.7649 H       
  25 H25           -2.9151     4.2168    -0.0632 H       
  26 H26           -1.8929     5.5267     0.5827 H       
  27 H27           -0.1273     3.7521     1.0909 H       
  28 H28           -0.4358     4.0161    -0.6448 H       
  29 H29           -1.7043    -0.3325     0.8537 H       
  30 H30           -2.9782    -1.1942     2.7700 H       
  31 H31           -4.0497     0.3779     4.3389 H       
  32 H32           -3.8338     2.7994     3.9824 H       
  33 H33            3.0861    -3.9465    -1.8992 H       
  34 H34            2.6565    -3.1743    -3.4444 H       
  35 H35            4.2392    -2.8503    -2.6972 H       
@<TRIPOS>BOND
   1    1    2 am
   2    1    3 2
   3    1    9 1
   4    2    4 1
   5    2   20 1
   6    4    5 1
   7    4    8 2
   8    5    6 1
   9    6    7 2
  10    6   21 1
  11    7    8 1
  12    7   19 1
  13    9   10 1
  14    9   14 1
  15    9   22 1
  16   10   15 ar
  17   10   11 ar
  18   11   12 1
  19   11   18 ar
  20   12   13 1
  21   12   23 1
  22   12   24 1
  23   13   14 1
  24   13   25 1
  25   13   26 1
  26   14   27 1
  27   14   28 1
  28   15   16 ar
  29   15   29 1
  30   16   17 ar
  31   16   30 1
  32   17   18 ar
  33   17   31 1
  34   18   32 1
  35   19   33 1
  36   19   34 1
  37   19   35 1

#	End of record

