#	Name: ASD03092988
#	Creating user name:	WinNT
#	Creation time:	15. 06. 2019 20:33

#	Modifying user name:	WinNT
#	Modification time:	15. 06. 2019 20:33

#	Program:	/corina/corina34_cracker 3.40 0067  02.08.2006

@<TRIPOS>MOLECULE
ASD03092988
  46   49    0    0    0
SMALL
NO_CHARGES


@<TRIPOS>ATOM
   1 C1            -0.0187     1.5258     0.0104 C.3     
   2 C2             0.0021    -0.0041     0.0020 C.3     
   3 C3            -1.2387    -0.6776    -0.5878 C.3     
   4 C4             1.3513    -0.6911    -0.2180 C.3     
   5 H5             1.3553    -1.6231    -0.7832 H       
   6 C6             0.7014    -0.7075     1.1670 C.3     
   7 H7             1.1466    -0.0804     1.9393 H       
   8 C8             0.1156    -2.0110     1.6453 C.ar    
   9 C9             0.0219    -3.0853     0.7804 C.ar    
  10 C10           -0.5154    -4.2810     1.2192 C.ar    
  11 C11           -0.9585    -4.4026     2.5230 C.ar    
  12 C12           -0.8639    -3.3286     3.3881 C.ar    
  13 C13           -0.3227    -2.1342     2.9505 C.ar    
  14 S14           -1.6444    -5.9263     3.0819 S.o2    
  15 N15           -0.3964    -6.8351     3.6812 N.am    
  16 O16           -2.4775    -5.6094     4.1886 O.2     
  17 O17           -2.1141    -6.6035     1.9243 O.2     
  18 C18            2.5581     0.1909    -0.4104 C.2     
  19 N19            3.0097     1.0590     0.4532 N.2     
  20 C20            4.0930     1.6512    -0.0647 C.2     
  21 C21            4.9587     2.7171     0.5586 C.3     
  22 C22            6.2850     2.7745    -0.2094 C.3     
  23 C23            6.0020     2.8615    -1.7118 C.3     
  24 C24            5.4312     1.5250    -2.2023 C.3     
  25 C25            4.3043     1.1236    -1.2857 C.2     
  26 O26            3.3479     0.2082    -1.4956 O.3     
  27 H27            1.0039     1.9031     0.0027 H       
  28 H28           -0.5459     1.8868    -0.8726 H       
  29 H29           -0.5289     1.8773     0.9072 H       
  30 H30           -1.6281    -0.0702    -1.4047 H       
  31 H31           -0.9716    -1.6650    -0.9644 H       
  32 H32           -2.0001    -0.7775     0.1857 H       
  33 H33            0.3681    -2.9904    -0.2382 H       
  34 H34           -0.5893    -5.1201     0.5433 H       
  35 H35           -1.2104    -3.4234     4.4066 H       
  36 H36           -0.2453    -1.2962     3.6275 H       
  37 H37           -0.5584    -7.4691     4.3972 H       
  38 H38            0.4965    -6.7334     3.3162 H       
  39 H39            4.4558     3.6820     0.4950 H       
  40 H40            5.1498     2.4704     1.6030 H       
  41 H41            6.8494     3.6523     0.1054 H       
  42 H42            6.8650     1.8756    -0.0005 H       
  43 H43            5.2799     3.6560    -1.9001 H       
  44 H44            6.9281     3.0784    -2.2441 H       
  45 H45            5.0550     1.6376    -3.2191 H       
  46 H46            6.2106     0.7632    -2.1811 H       
@<TRIPOS>BOND
   1    1    2 1
   2    1   27 1
   3    1   28 1
   4    1   29 1
   5    2    6 1
   6    2    3 1
   7    2    4 1
   8    3   30 1
   9    3   31 1
  10    3   32 1
  11    4    5 1
  12    4    6 1
  13    4   18 1
  14    6    7 1
  15    6    8 1
  16    8   13 ar
  17    8    9 ar
  18    9   10 ar
  19    9   33 1
  20   10   11 ar
  21   10   34 1
  22   11   12 ar
  23   11   14 1
  24   12   13 ar
  25   12   35 1
  26   13   36 1
  27   14   15 am
  28   14   16 2
  29   14   17 2
  30   15   37 1
  31   15   38 1
  32   18   26 1
  33   18   19 2
  34   19   20 1
  35   20   25 2
  36   20   21 1
  37   21   22 1
  38   21   39 1
  39   21   40 1
  40   22   23 1
  41   22   41 1
  42   22   42 1
  43   23   24 1
  44   23   43 1
  45   23   44 1
  46   24   25 1
  47   24   45 1
  48   24   46 1
  49   25   26 1

#	End of record

