#	Name: ASD01814560
#	Creating user name:	WinNT
#	Creation time:	15. 06. 2019 19:32

#	Modifying user name:	WinNT
#	Modification time:	15. 06. 2019 19:32

#	Program:	/corina/corina34_cracker 3.40 0067  02.08.2006

@<TRIPOS>MOLECULE
ASD01814560
  42   44    0    0    0
SMALL
NO_CHARGES


@<TRIPOS>ATOM
   1 C1            -0.0168     1.3881     0.0097 C.ar    
   2 C2             0.0021    -0.0041     0.0020 C.ar    
   3 C3             1.1796    -0.6892    -0.0129 C.ar    
   4 C4             2.3944     0.0145    -0.0206 C.ar    
   5 C5             2.3745     1.4311    -0.0129 C.ar    
   6 C6             1.1425     2.1037     0.0024 C.ar    
   7 C7             3.6273    -0.6672    -0.0355 C.ar    
   8 C8             4.7912     0.0276    -0.0424 C.ar    
   9 C9             4.7935     1.4357    -0.0345 C.ar    
  10 C10            3.5923     2.1420    -0.0202 C.ar    
  11 O11            3.5945     3.4962    -0.0126 O.3     
  12 C12            6.0715     2.1655    -0.0419 C.2     
  13 O13            6.0774     3.3809    -0.0351 O.2     
  14 C14            3.6522    -2.1739    -0.0431 C.3     
  15 C15            3.5235    -2.6712    -1.4599 C.ar    
  16 C16            4.6569    -2.8787    -2.2241 C.ar    
  17 C17            4.5416    -3.3345    -3.5231 C.ar    
  18 C18            3.2873    -3.5841    -4.0606 C.ar    
  19 C19            2.1516    -3.3752    -3.2918 C.ar    
  20 C20            2.2725    -2.9246    -1.9914 C.ar    
  21 O21            3.1712    -4.0322    -5.3384 O.3     
  22 O22            7.2356     1.4861    -0.0561 O.3     
  23 C23            1.8487    -4.2678    -5.8256 C.3     
  24 C24            3.5847     4.1521    -1.2822 C.3     
  25 H25           -0.9635     1.9079     0.0170 H       
  26 H26           -0.9304    -0.5489     0.0083 H       
  27 H27            1.1785    -1.7692    -0.0183 H       
  28 H28            1.1137     3.1833     0.0085 H       
  29 H29            5.7299    -0.5063    -0.0538 H       
  30 H30            4.5934    -2.5240     0.3807 H       
  31 H31            2.8220    -2.5541     0.5522 H       
  32 H32            5.6332    -2.6839    -1.8053 H       
  33 H33            5.4272    -3.4961    -4.1198 H       
  34 H34            1.1740    -3.5688    -3.7079 H       
  35 H35            1.3887    -2.7618    -1.3924 H       
  36 H36            8.0490     2.0089    -0.0605 H       
  37 H37            1.3619    -5.0209    -5.2059 H       
  38 H38            1.2768    -3.3407    -5.7873 H       
  39 H39            1.8985    -4.6216    -6.8554 H       
  40 H40            4.4694     3.8610    -1.8484 H       
  41 H41            2.6895     3.8638    -1.8331 H       
  42 H42            3.5877     5.2319    -1.1333 H       
@<TRIPOS>BOND
   1    1    2 ar
   2    1    6 ar
   3    1   25 1
   4    2    3 ar
   5    2   26 1
   6    3    4 ar
   7    3   27 1
   8    4    5 ar
   9    4    7 ar
  10    5    6 ar
  11    5   10 ar
  12    6   28 1
  13    7    8 ar
  14    7   14 1
  15    8    9 ar
  16    8   29 1
  17    9   10 ar
  18    9   12 1
  19   10   11 1
  20   11   24 1
  21   12   13 2
  22   12   22 1
  23   14   15 1
  24   14   30 1
  25   14   31 1
  26   15   16 ar
  27   15   20 ar
  28   16   17 ar
  29   16   32 1
  30   17   18 ar
  31   17   33 1
  32   18   19 ar
  33   18   21 1
  34   19   20 ar
  35   19   34 1
  36   20   35 1
  37   21   23 1
  38   22   36 1
  39   23   37 1
  40   23   38 1
  41   23   39 1
  42   24   40 1
  43   24   41 1
  44   24   42 1

#	End of record

