#	Name: ASD02610021
#	Creating user name:	WinNT
#	Creation time:	15. 06. 2019 20:25

#	Modifying user name:	WinNT
#	Modification time:	15. 06. 2019 20:25

#	Program:	/corina/corina34_cracker 3.40 0067  02.08.2006

@<TRIPOS>MOLECULE
ASD02610021
  98  100    0    0    0
SMALL
NO_CHARGES


@<TRIPOS>ATOM
   1 C1            -0.3592     1.8485     0.0010 C.3     
   2 C2            -0.4539     0.3087    -0.0649 C.3     
   3 C3             0.9571    -0.1935    -0.2388 C.2     
   4 C4             1.8233     0.7787    -0.2411 C.2     
   5 C5             1.1417     2.0936     0.0190 C.3     
   6 C6             3.2935     0.6734    -0.5757 C.3     
   7 C7             4.0741     1.6909     0.2350 C.3     
   8 C8             4.1241     3.0599    -0.3715 C.3     
   9 C9             2.9081     3.8864    -0.0583 C.3     
  10 C10            1.6553     3.2783    -0.6929 C.3     
  11 O11           -1.2567    -0.0868    -1.1789 O.3     
  12 C12            1.3217    -1.6477    -0.3917 C.3     
  13 O13           -0.9769     2.3503     1.2155 O.3     
  14 H14            1.3611     2.2989     1.0667 H       
  15 O15            0.6134     4.2892    -0.7221 O.3     
  16 C16            1.9824     2.8787    -2.1332 C.3     
  17 O17            5.2996     3.7500     0.1286 O.3     
  18 C18            5.8648     4.6576    -0.6829 C.2     
  19 C19            7.0879     5.4136    -0.2319 C.3     
  20 O20            5.3928     4.8685    -1.7750 O.2     
  21 O21            3.8537    -0.6100    -0.1804 O.3     
  22 C22            5.1711    -0.4449     0.0613 C.2     
  23 C23            5.4549     1.0187     0.3567 C.3     
  24 O24            3.4915     1.7947     1.5357 O.3     
  25 C25            7.5272     6.3780    -1.3355 C.3     
  26 C26            8.7690     7.1455    -0.8776 C.3     
  27 C27           -2.2768     2.6780     1.1475 C.2     
  28 C28           -2.9856     3.2058     2.3682 C.3     
  29 C29           -4.4468     3.4994     2.0224 C.3     
  30 C30           -5.1664     4.0353     3.2617 C.3     
  31 C31           -6.6276     4.3289     2.9159 C.3     
  32 C32           -7.3473     4.8647     4.1552 C.3     
  33 O33           -2.8786     2.5498     0.1077 O.2     
  34 O34            5.9981    -1.3257     0.0458 O.2     
  35 O35            6.3626     1.5584    -0.6060 O.3     
  36 C36           -8.8085     5.1583     3.8094 C.3     
  37 C37           -9.5281     5.6942     5.0487 C.3     
  38 C38            6.0101     1.1836     1.7728 C.3     
  39 C39            0.2421     4.8157     0.4554 C.2     
  40 C40           -0.9073     5.7884     0.5169 C.3     
  41 O41            0.8294     4.5099     1.4660 O.2     
  42 H42            3.4465     0.8487    -1.6406 H       
  43 C43           -1.9047    -1.2772    -1.0807 C.2     
  44 C44           -2.6781    -1.7920    -2.2250 C.2     
  45 C45           -2.7415    -1.0926    -3.3518 C.2     
  46 C46           -1.8410    -1.9799     0.0514 C.2     
  47 C47           -2.0229     0.2275    -3.4608 C.3     
  48 C48           -3.3967    -3.1121    -2.1160 C.3     
  49 H49           -0.8138     2.3013    -0.8802 H       
  50 H50           -0.8786    -0.0804     0.8605 H       
  51 H51            4.2119     2.9612    -1.4535 H       
  52 H52            2.7754     3.9331     1.0226 H       
  53 H53            3.0516     4.8955    -0.4447 H       
  54 H54            0.4170    -2.2547    -0.3564 H       
  55 H55            1.8230    -1.7980    -1.3478 H       
  56 H56            1.9887    -1.9423     0.4185 H       
  57 H57            1.1196     2.3825    -2.5774 H       
  58 H58            2.2263     3.7702    -2.7111 H       
  59 H59            2.8344     2.1989    -2.1370 H       
  60 H60            6.8542     5.9772     0.6713 H       
  61 H61            7.8935     4.7097    -0.0226 H       
  62 H62            3.9358     2.4277     2.1162 H       
  63 H63            7.7609     5.8143    -2.2387 H       
  64 H64            6.7217     7.0819    -1.5447 H       
  65 H65            9.0819     7.8325    -1.6638 H       
  66 H66            8.5353     7.7091     0.0256 H       
  67 H67            9.5745     6.4416    -0.6683 H       
  68 H68           -2.9429     2.4615     3.1634 H       
  69 H69           -2.5000     4.1227     2.7023 H       
  70 H70           -4.4895     4.2437     1.2272 H       
  71 H71           -4.9324     2.5825     1.6883 H       
  72 H72           -5.1237     3.2910     4.0569 H       
  73 H73           -4.6808     4.9522     3.5958 H       
  74 H74           -6.6703     5.0732     2.1207 H       
  75 H75           -7.1132     3.4120     2.5818 H       
  76 H76           -7.3046     4.1205     4.9504 H       
  77 H77           -6.8617     5.7816     4.4893 H       
  78 H78            7.2476     1.1700    -0.5731 H       
  79 H79           -8.8512     5.9026     3.0142 H       
  80 H80           -9.2941     4.2415     3.4753 H       
  81 H81          -10.5691     5.9034     4.8023 H       
  82 H82           -9.4854     4.9499     5.8439 H       
  83 H83           -9.0425     6.6111     5.3828 H       
  84 H84            5.3281     0.7217     2.4866 H       
  85 H85            6.9859     0.7023     1.8388 H       
  86 H86            6.1121     2.2444     2.0019 H       
  87 H87           -1.3087     5.9404    -0.4850 H       
  88 H88           -1.6878     5.3882     1.1641 H       
  89 H89           -0.5569     6.7402     0.9161 H       
  90 H90           -3.3081    -1.4698    -4.1903 H       
  91 H91           -2.4360    -2.8739     0.1664 H       
  92 H92           -1.1944    -1.6548     0.8531 H       
  93 H93           -2.4046     0.9126    -2.7038 H       
  94 H94           -0.9549     0.0737    -3.3062 H       
  95 H95           -2.1892     0.6511    -4.4513 H       
  96 H96           -4.4070    -2.9461    -1.7420 H       
  97 H97           -3.4456    -3.5814    -3.0986 H       
  98 H98           -2.8573    -3.7638    -1.4286 H       
@<TRIPOS>BOND
   1    1    2 1
   2    1    5 1
   3    1   13 1
   4    1   49 1
   5    2    3 1
   6    2   11 1
   7    2   50 1
   8    3    4 2
   9    3   12 1
  10    4    5 1
  11    4    6 1
  12    5   10 1
  13    5   14 1
  14    6    7 1
  15    6   21 1
  16    6   42 1
  17    7   23 1
  18    7   24 1
  19    7    8 1
  20    8    9 1
  21    8   17 1
  22    8   51 1
  23    9   10 1
  24    9   52 1
  25    9   53 1
  26   10   15 1
  27   10   16 1
  28   11   43 1
  29   12   54 1
  30   12   55 1
  31   12   56 1
  32   13   27 1
  33   15   39 1
  34   16   57 1
  35   16   58 1
  36   16   59 1
  37   17   18 1
  38   18   19 1
  39   18   20 2
  40   19   25 1
  41   19   60 1
  42   19   61 1
  43   21   22 1
  44   22   23 1
  45   22   34 2
  46   23   35 1
  47   23   38 1
  48   24   62 1
  49   25   26 1
  50   25   63 1
  51   25   64 1
  52   26   65 1
  53   26   66 1
  54   26   67 1
  55   27   28 1
  56   27   33 2
  57   28   29 1
  58   28   68 1
  59   28   69 1
  60   29   30 1
  61   29   70 1
  62   29   71 1
  63   30   31 1
  64   30   72 1
  65   30   73 1
  66   31   32 1
  67   31   74 1
  68   31   75 1
  69   32   36 1
  70   32   76 1
  71   32   77 1
  72   35   78 1
  73   36   37 1
  74   36   79 1
  75   36   80 1
  76   37   81 1
  77   37   82 1
  78   37   83 1
  79   38   84 1
  80   38   85 1
  81   38   86 1
  82   39   40 1
  83   39   41 2
  84   40   87 1
  85   40   88 1
  86   40   89 1
  87   43   44 1
  88   43   46 2
  89   44   45 2
  90   44   48 1
  91   45   47 1
  92   45   90 1
  93   46   91 1
  94   46   92 1
  95   47   93 1
  96   47   94 1
  97   47   95 1
  98   48   96 1
  99   48   97 1
 100   48   98 1

#	End of record

