#	Name: ASD01912166
#	Creating user name:	WinNT
#	Creation time:	15. 06. 2019 19:59

#	Modifying user name:	WinNT
#	Modification time:	15. 06. 2019 19:59

#	Program:	/corina/corina34_cracker 3.40 0067  02.08.2006

@<TRIPOS>MOLECULE
ASD01912166
  38   41    0    0    0
SMALL
NO_CHARGES


@<TRIPOS>ATOM
   1 C1            -0.0184     1.5028     0.0103 C.3     
   2 C2             0.0021    -0.0041     0.0020 C.2     
   3 O3             0.5655    -0.7854    -0.9247 O.3     
   4 N4             0.4056    -1.9527    -0.6369 N.2     
   5 C5            -0.2637    -2.0520     0.4820 C.2     
   6 N6            -0.5240    -0.7942     0.9045 N.2     
   7 C7            -0.6587    -3.3099     1.1637 C.ar    
   8 C8            -0.3144    -4.5416     0.6119 C.ar    
   9 C9            -0.6847    -5.7093     1.2508 C.ar    
  10 C10           -1.3964    -5.6559     2.4368 C.ar    
  11 C11           -1.7403    -4.4348     2.9882 C.ar    
  12 C12           -1.3702    -3.2626     2.3609 C.ar    
  13 C13            1.4178     2.0757    -0.0003 C.3     
  14 Cl14          -0.2574    -7.2457     0.5649 Cl      
  15 C15            1.3205     3.3047    -0.8772 C.2     
  16 N16            0.1863     3.2697    -1.5978 N.am    
  17 C17           -0.5877     2.0552    -1.3152 C.3     
  18 O18            2.1454     4.1926    -0.9228 O.2     
  19 C19           -0.2065     4.2646    -2.5018 C.ar    
  20 C20           -0.9810     5.3346    -2.0673 C.ar    
  21 C21           -1.3668     6.3149    -2.9635 C.ar    
  22 C22           -0.9832     6.2307    -4.2891 C.ar    
  23 C23           -0.2129     5.1675    -4.7232 C.ar    
  24 C24            0.1812     4.1879    -3.8324 C.ar    
  25 F25           -1.3565     5.4161    -0.7721 F       
  26 H26           -0.5819     1.8786     0.8643 H       
  27 H27            0.2406    -4.5838    -0.3136 H       
  28 H28           -1.6845    -6.5708     2.9332 H       
  29 H29           -2.2957    -4.3987     3.9137 H       
  30 H30           -1.6392    -2.3099     2.7928 H       
  31 H31            1.7265     2.3503     1.0084 H       
  32 H32            2.1131     1.3546    -0.4300 H       
  33 H33           -0.4536     1.3277    -2.1157 H       
  34 H34           -1.6437     2.2994    -1.1995 H       
  35 H35           -1.9684     7.1466    -2.6275 H       
  36 H36           -1.2861     6.9970    -4.9873 H       
  37 H37            0.0848     5.1051    -5.7595 H       
  38 H38            0.7828     3.3582    -4.1730 H       
@<TRIPOS>BOND
   1    1    2 1
   2    1   13 1
   3    1   17 1
   4    1   26 1
   5    2    3 1
   6    2    6 2
   7    3    4 1
   8    4    5 2
   9    5    6 1
  10    5    7 1
  11    7    8 ar
  12    7   12 ar
  13    8    9 ar
  14    8   27 1
  15    9   10 ar
  16    9   14 1
  17   10   11 ar
  18   10   28 1
  19   11   12 ar
  20   11   29 1
  21   12   30 1
  22   13   15 1
  23   13   31 1
  24   13   32 1
  25   15   16 am
  26   15   18 2
  27   16   17 1
  28   16   19 1
  29   17   33 1
  30   17   34 1
  31   19   20 ar
  32   19   24 ar
  33   20   21 ar
  34   20   25 1
  35   21   22 ar
  36   21   35 1
  37   22   23 ar
  38   22   36 1
  39   23   24 ar
  40   23   37 1
  41   24   38 1

#	End of record

