#	Name: ASD01884705
#	Creating user name:	WinNT
#	Creation time:	15. 06. 2019 19:48

#	Modifying user name:	WinNT
#	Modification time:	15. 06. 2019 19:48

#	Program:	/corina/corina34_cracker 3.40 0067  02.08.2006

@<TRIPOS>MOLECULE
ASD01884705
  52   54    0    0    0
SMALL
NO_CHARGES


@<TRIPOS>ATOM
   1 C1            -0.0258     1.3890    -0.1257 C.2     
   2 C2            -0.0072    -0.0033    -0.1363 C.2     
   3 C3            -1.2138    -0.6983     0.0099 C.2     
   4 C4            -2.3814    -0.0124     0.1588 C.2     
   5 N5            -2.4011     1.3447     0.1693 N.am    
   6 C6            -1.2664     2.0574     0.0388 C.2     
   7 O7            -1.3063     3.2761     0.0510 O.2     
   8 C8            -3.6774     2.0454     0.3314 C.3     
   9 C9             1.1882     2.1341    -0.2725 C.1     
  10 N10            2.1513     2.7252    -0.3889 N.1     
  11 C11           -3.9446     2.2809     1.8194 C.3     
  12 C12           -5.2775     3.0127     1.9886 C.3     
  13 C13           -6.4181     2.1122     1.5101 C.3     
  14 C14           -5.4856     3.3586     3.4644 C.3     
  15 N15           -1.2205    -2.1015     0.0024 N.pl3   
  16 C16           -0.5596    -2.9093     0.9291 C.ar    
  17 C17           -0.7515    -4.2560     0.6622 C.ar    
  18 C18           -1.6271    -4.3830    -0.5641 C.3     
  19 C19           -1.9274    -2.9325    -0.9758 C.3     
  20 C20            0.2232    -2.5405     2.0259 C.ar    
  21 C21            0.7942    -3.5050     2.8278 C.ar    
  22 C22            0.5968    -4.8460     2.5523 C.ar    
  23 C23           -0.1768    -5.2190     1.4692 C.ar    
  24 C24            1.2229    -5.8978     3.4314 C.3     
  25 C25            0.2747    -6.2475     4.5493 C.2     
  26 O26           -0.7987    -5.6993     4.6244 O.2     
  27 C27            0.6660    -7.2815     5.5735 C.3     
  28 H28            0.9232    -0.5385    -0.2556 H       
  29 H29           -3.3069    -0.5577     0.2701 H       
  30 H30           -3.6340     3.0038    -0.1861 H       
  31 H31           -4.4801     1.4407    -0.0906 H       
  32 H32           -3.9880     1.3225     2.3368 H       
  33 H33           -3.1420     2.8856     2.2414 H       
  34 H34           -5.2663     3.9292     1.3987 H       
  35 H35           -7.3677     2.6335     1.6307 H       
  36 H36           -6.2699     1.8658     0.4587 H       
  37 H37           -6.4294     1.1957     2.1000 H       
  38 H38           -4.6731     4.0002     3.8053 H       
  39 H39           -6.4352     3.8800     3.5850 H       
  40 H40           -5.4969     2.4421     4.0543 H       
  41 H41           -1.0949    -4.9055    -1.3590 H       
  42 H42           -2.5524    -4.9041    -0.3184 H       
  43 H43           -3.0001    -2.7427    -0.9369 H       
  44 H44           -1.5441    -2.7365    -1.9772 H       
  45 H45            0.3818    -1.4951     2.2461 H       
  46 H46            1.3982    -3.2127     3.6740 H       
  47 H47           -0.3322    -6.2657     1.2530 H       
  48 H48            1.4313    -6.7890     2.8395 H       
  49 H49            2.1531    -5.5143     3.8506 H       
  50 H50            1.6610    -7.6624     5.3434 H       
  51 H51            0.6709    -6.8275     6.5645 H       
  52 H52           -0.0510    -8.1023     5.5534 H       
@<TRIPOS>BOND
   1    1    2 2
   2    1    9 1
   3    1    6 1
   4    2    3 1
   5    2   28 1
   6    3    4 2
   7    3   15 1
   8    4    5 1
   9    4   29 1
  10    5    8 1
  11    5    6 am
  12    6    7 2
  13    8   11 1
  14    8   30 1
  15    8   31 1
  16    9   10 3
  17   11   12 1
  18   11   32 1
  19   11   33 1
  20   12   13 1
  21   12   14 1
  22   12   34 1
  23   13   35 1
  24   13   36 1
  25   13   37 1
  26   14   38 1
  27   14   39 1
  28   14   40 1
  29   15   16 1
  30   15   19 1
  31   16   17 ar
  32   16   20 ar
  33   17   18 1
  34   17   23 ar
  35   18   19 1
  36   18   41 1
  37   18   42 1
  38   19   43 1
  39   19   44 1
  40   20   21 ar
  41   20   45 1
  42   21   22 ar
  43   21   46 1
  44   22   23 ar
  45   22   24 1
  46   23   47 1
  47   24   25 1
  48   24   48 1
  49   24   49 1
  50   25   26 2
  51   25   27 1
  52   27   50 1
  53   27   51 1
  54   27   52 1

#	End of record

