#	Name: ASD01940129
#	Creating user name:	WinNT
#	Creation time:	15. 06. 2019 20:11

#	Modifying user name:	WinNT
#	Modification time:	15. 06. 2019 20:11

#	Program:	/corina/corina34_cracker 3.40 0067  02.08.2006

@<TRIPOS>MOLECULE
ASD01940129
  36   37    0    0    0
SMALL
NO_CHARGES


@<TRIPOS>ATOM
   1 I1             2.7949    -4.5909    -1.6184 I       
   2 F2             1.9017     1.5994     2.2856 F       
   3 C3             1.0632     2.1514     1.3816 C.ar    
   4 C4             1.3878     2.1344     0.0316 C.ar    
   5 C5             0.5193     2.7048    -0.8974 C.ar    
   6 C6            -0.6647     3.2866    -0.4696 C.ar    
   7 C7            -0.9826     3.3011     0.8760 C.ar    
   8 C8            -0.1244     2.7301     1.8001 C.ar    
   9 N9             2.5860     1.5455    -0.3956 N.pl3   
  10 N10            0.8420     2.6909    -2.2610 N.am    
  11 C11            2.6330     0.1756    -0.6683 C.ar    
  12 C12            1.4779    -0.5906    -0.5847 C.ar    
  13 C13            1.5274    -1.9444    -0.8553 C.ar    
  14 C14            2.7257    -2.5374    -1.2092 C.ar    
  15 C15            3.8791    -1.7776    -1.2932 C.ar    
  16 C16            3.8355    -0.4221    -1.0295 C.ar    
  17 Cl17           5.2827     0.5309    -1.1350 Cl      
  18 F18           -0.4425     2.7421     3.1131 F       
  19 S19            0.4254     3.9723    -3.2236 S.o2    
  20 O20            0.9908     3.6585    -4.4889 O.2     
  21 O21           -0.9810     4.0916    -3.0589 O.2     
  22 C22            1.2760     5.3919    -2.4807 C.3     
  23 O23            0.9865     6.5696    -3.2366 O.3     
  24 C24           -0.3285     7.0873    -3.0251 C.3     
  25 H25           -1.3389     3.7291    -1.1881 H       
  26 H26           -1.9052     3.7551     1.2065 H       
  27 H27            3.3825     2.0888    -0.5021 H       
  28 H28            1.3095     1.9307    -2.6410 H       
  29 H29            0.5417    -0.1286    -0.3081 H       
  30 H30            0.6292    -2.5406    -0.7900 H       
  31 H31            4.8134    -2.2438    -1.5691 H       
  32 H32            0.9326     5.5251    -1.4548 H       
  33 H33            2.3513     5.2135    -2.4837 H       
  34 H34           -0.4697     7.9803    -3.6341 H       
  35 H35           -1.0650     6.3349    -3.3073 H       
  36 H36           -0.4539     7.3417    -1.9727 H       
@<TRIPOS>BOND
   1    1   14 1
   2    2    3 1
   3    3    4 ar
   4    3    8 ar
   5    4    5 ar
   6    4    9 1
   7    5    6 ar
   8    5   10 1
   9    6    7 ar
  10    6   25 1
  11    7    8 ar
  12    7   26 1
  13    8   18 1
  14    9   11 1
  15    9   27 1
  16   10   19 am
  17   10   28 1
  18   11   12 ar
  19   11   16 ar
  20   12   13 ar
  21   12   29 1
  22   13   14 ar
  23   13   30 1
  24   14   15 ar
  25   15   16 ar
  26   15   31 1
  27   16   17 1
  28   19   20 2
  29   19   21 2
  30   19   22 1
  31   22   23 1
  32   22   32 1
  33   22   33 1
  34   23   24 1
  35   24   34 1
  36   24   35 1
  37   24   36 1

#	End of record

