#	Name: ASD03081015
#	Creating user name:	WinNT
#	Creation time:	15. 06. 2019 20:26

#	Modifying user name:	WinNT
#	Modification time:	15. 06. 2019 20:26

#	Program:	/corina/corina34_cracker 3.40 0067  02.08.2006

@<TRIPOS>MOLECULE
ASD03081015
  20   20    0    0    0
SMALL
NO_CHARGES


@<TRIPOS>ATOM
   1 C1            -0.0180     1.4763     0.0102 C.2     
   2 C2             0.0021    -0.0041     0.0020 C.ar    
   3 C3             1.2164    -0.6987    -0.0133 C.ar    
   4 C4             1.1808    -2.0821    -0.0199 C.ar    
   5 C5            -0.0425    -2.7277    -0.0112 C.ar    
   6 N6            -1.1717    -2.0461     0.0032 N.ar    
   7 C7            -1.1888    -0.7291     0.0154 C.ar    
   8 N8             1.0994     2.1418     0.0031 N.2     
   9 N9            -1.2264     2.1522     0.0196 N.pl3   
  10 C10           -0.0859    -4.2341    -0.0189 C.3     
  11 O11            1.0802     3.5577     0.0109 O.3     
  12 H12            2.1575    -0.1689    -0.0202 H       
  13 H13            2.0984    -2.6516    -0.0321 H       
  14 H14           -2.1336    -0.2061     0.0317 H       
  15 H15           -2.0598     1.6558     0.0208 H       
  16 H16           -1.2396     3.1221     0.0249 H       
  17 H17           -0.0861    -4.6028     1.0069 H       
  18 H18           -0.9910    -4.5690    -0.5256 H       
  19 H19            0.7881    -4.6201    -0.5435 H       
  20 H20            1.9581     3.9630     0.0046 H       
@<TRIPOS>BOND
   1    1    2 1
   2    1    8 2
   3    1    9 1
   4    2    3 ar
   5    2    7 ar
   6    3    4 ar
   7    3   12 1
   8    4    5 ar
   9    4   13 1
  10    5    6 ar
  11    5   10 1
  12    6    7 ar
  13    7   14 1
  14    8   11 1
  15    9   15 1
  16    9   16 1
  17   10   17 1
  18   10   18 1
  19   10   19 1
  20   11   20 1

#	End of record

