#	Name: ASD03200012
#	Creating user name:	WinNT
#	Creation time:	15. 06. 2019 20:34

#	Modifying user name:	WinNT
#	Modification time:	15. 06. 2019 20:34

#	Program:	/corina/corina34_cracker 3.40 0067  02.08.2006

@<TRIPOS>MOLECULE
ASD03200012
  49   52    0    0    0
SMALL
NO_CHARGES


@<TRIPOS>ATOM
   1 C1             0.9669    -1.0239    -0.1637 C.3     
   2 N2            -0.0329     0.0400    -0.0056 N.3     
   3 C3             0.2977     0.9155     1.1259 C.3     
   4 C4             1.6445     1.5957     0.8698 C.3     
   5 C5             2.7260     0.5260     0.6951 C.3     
   6 C6             2.3337    -0.4016    -0.4583 C.3     
   7 C7            -1.3130    -0.4942     0.1334 C.ar    
   8 C8            -2.0176    -0.3606     1.3272 C.ar    
   9 C9            -3.2828    -0.9035     1.4254 C.ar    
  10 N10           -3.8280    -1.5435     0.4083 N.ar    
  11 C11           -3.1973    -1.6941    -0.7413 C.ar    
  12 C12           -1.9269    -1.1742    -0.9253 C.ar    
  13 N13           -1.2614    -1.3368    -2.1479 N.am    
  14 C14           -1.4449    -2.4593    -2.8709 C.2     
  15 C15           -0.8503    -2.5770    -4.2049 C.2     
  16 O16           -2.1048    -3.3756    -2.4156 O.2     
  17 C17           -1.0852    -3.6520    -5.0341 C.2     
  18 S18           -0.1861    -3.3945    -6.5273 S.3     
  19 C19            0.4256    -1.8658    -5.9059 C.2     
  20 N20           -0.0420    -1.6502    -4.7188 N.2     
  21 C21            1.3362    -0.9581    -6.6357 C.ar    
  22 C22            1.8473     0.1828    -6.0160 C.ar    
  23 N23            2.6585     0.9915    -6.6661 N.ar    
  24 C24            3.0184     0.7618    -7.9141 C.ar    
  25 C25            2.5550    -0.3477    -8.5984 C.ar    
  26 C26            1.7047    -1.2318    -7.9582 C.ar    
  27 N27            1.9848     2.4553     2.0115 N.3     
  28 N28           -1.8841    -4.7399    -4.7455 N.pl3   
  29 H29            1.0242    -1.6078     0.7549 H       
  30 H30            0.6782    -1.6739    -0.9897 H       
  31 H31           -0.4771     1.6742     1.2366 H       
  32 H32            0.3581     0.3225     2.0385 H       
  33 H33            1.5808     2.2000    -0.0351 H       
  34 H34            3.6789     1.0048     0.4694 H       
  35 H35            2.8170    -0.0535     1.6138 H       
  36 H36            3.0786    -1.1908    -0.5601 H       
  37 H37            2.2808     0.1713    -1.3841 H       
  38 H38           -1.5796     0.1608     2.1655 H       
  39 H39           -3.8345    -0.8034     2.3484 H       
  40 H40           -3.6792    -2.2248    -1.5491 H       
  41 H41           -0.6687    -0.6415    -2.4737 H       
  42 H42            1.5751     0.4047    -4.9947 H       
  43 H43            3.6855     1.4513    -8.4101 H       
  44 H44            2.8573    -0.5243    -9.6200 H       
  45 H45            1.3280    -2.1059    -8.4685 H       
  46 H46            2.8707     2.9158     1.8660 H       
  47 H47            1.2531     3.1268     2.1893 H       
  48 H48           -2.3411    -4.7931    -3.8915 H       
  49 H49           -1.9885    -5.4513    -5.3966 H       
@<TRIPOS>BOND
   1    1    2 1
   2    1    6 1
   3    1   29 1
   4    1   30 1
   5    2    3 1
   6    2    7 1
   7    3    4 1
   8    3   31 1
   9    3   32 1
  10    4    5 1
  11    4   27 1
  12    4   33 1
  13    5    6 1
  14    5   34 1
  15    5   35 1
  16    6   36 1
  17    6   37 1
  18    7    8 ar
  19    7   12 ar
  20    8    9 ar
  21    8   38 1
  22    9   10 ar
  23    9   39 1
  24   10   11 ar
  25   11   12 ar
  26   11   40 1
  27   12   13 1
  28   13   14 am
  29   13   41 1
  30   14   15 1
  31   14   16 2
  32   15   17 2
  33   15   20 1
  34   17   18 1
  35   17   28 1
  36   18   19 1
  37   19   20 2
  38   19   21 1
  39   21   22 ar
  40   21   26 ar
  41   22   23 ar
  42   22   42 1
  43   23   24 ar
  44   24   25 ar
  45   24   43 1
  46   25   26 ar
  47   25   44 1
  48   26   45 1
  49   27   46 1
  50   27   47 1
  51   28   48 1
  52   28   49 1

#	End of record

