#	Name: ASD04560002
#	Creating user name:	WinNT
#	Creation time:	15. 06. 2019 20:49

#	Modifying user name:	WinNT
#	Modification time:	15. 06. 2019 20:49

#	Program:	/corina/corina34_cracker 3.40 0067  02.08.2006

@<TRIPOS>MOLECULE
ASD04560002
  44   46    0    0    0
SMALL
NO_CHARGES


@<TRIPOS>ATOM
   1 C1            -0.1487     1.5530     0.3139 C.ar    
   2 C2            -0.1657     0.1825     0.3392 C.ar    
   3 C3             1.0220    -0.5328     0.2037 C.ar    
   4 C4             2.2300     0.1419     0.0421 C.ar    
   5 C5             2.2531     1.5123     0.0160 C.ar    
   6 C6             1.0624     2.2330     0.1519 C.ar    
   7 C7             1.0840     3.7071     0.1242 C.2     
   8 O8             2.1379     4.2973    -0.0168 O.2     
   9 N9            -0.0643     4.4005     0.2553 N.am    
  10 C10           -0.0324     5.7968     0.3449 C.ar    
  11 C11           -1.0527     6.5531    -0.2167 C.ar    
  12 C12           -1.0194     7.9309    -0.1268 C.ar    
  13 C13            0.0303     8.5582     0.5229 C.ar    
  14 C14            1.0488     7.8059     1.0836 C.ar    
  15 C15            1.0168     6.4276     1.0005 C.ar    
  16 F16            0.0612     9.9060     0.6094 F       
  17 S17            0.9963    -2.2943     0.2372 S.3     
  18 C18            2.7442    -2.7319     0.0271 C.3     
  19 C19            2.8909    -4.2318     0.0347 C.ar    
  20 C20            2.7134    -4.9566    -1.1423 C.ar    
  21 C21            2.8511    -6.3438    -1.1282 C.ar    
  22 C22            3.1619    -6.9915     0.0495 C.ar    
  23 C23            3.3366    -6.2668     1.2155 C.ar    
  24 C24            3.2068    -4.8895     1.2060 C.ar    
  25 B25            2.3592    -4.2136    -2.4793 Du      
  26 O26            2.6793    -4.8083    -3.7284 O.3     
  27 O27            1.7188    -2.9468    -2.4394 O.3     
  28 H28           -1.0704     2.1069     0.4146 H       
  29 H29           -1.1007    -0.3433     0.4647 H       
  30 H30            3.1493    -0.4153    -0.0624 H       
  31 H31            3.1900     2.0348    -0.1090 H       
  32 H32           -0.9129     3.9317     0.2875 H       
  33 H33           -1.8714     6.0643    -0.7238 H       
  34 H34           -1.8126     8.5195    -0.5637 H       
  35 H35            1.8666     8.2971     1.5898 H       
  36 H36            1.8113     5.8413     1.4379 H       
  37 H37            3.1063    -2.3363    -0.9218 H       
  38 H38            3.3262    -2.3058     0.8443 H       
  39 H39            2.7143    -6.9103    -2.0374 H       
  40 H40            3.2689    -8.0661     0.0616 H       
  41 H41            3.5796    -6.7780     2.1353 H       
  42 H42            3.3445    -4.3288     2.1188 H       
  43 H43            2.4229    -4.2767    -4.4944 H       
  44 H44            1.5413    -2.5682    -3.3113 H       
@<TRIPOS>BOND
   1    1    2 ar
   2    1    6 ar
   3    1   28 1
   4    2    3 ar
   5    2   29 1
   6    3    4 ar
   7    3   17 1
   8    4    5 ar
   9    4   30 1
  10    5    6 ar
  11    5   31 1
  12    6    7 1
  13    7    8 2
  14    7    9 am
  15    9   10 1
  16    9   32 1
  17   10   11 ar
  18   10   15 ar
  19   11   12 ar
  20   11   33 1
  21   12   13 ar
  22   12   34 1
  23   13   14 ar
  24   13   16 1
  25   14   15 ar
  26   14   35 1
  27   15   36 1
  28   17   18 1
  29   18   19 1
  30   18   37 1
  31   18   38 1
  32   19   20 ar
  33   19   24 ar
  34   20   21 ar
  35   20   25 1
  36   21   22 ar
  37   21   39 1
  38   22   23 ar
  39   22   40 1
  40   23   24 ar
  41   23   41 1
  42   24   42 1
  43   25   26 1
  44   25   27 1
  45   26   43 1
  46   27   44 1

#	End of record

