#	Name: ASD03092906
#	Creating user name:	WinNT
#	Creation time:	15. 06. 2019 20:33

#	Modifying user name:	WinNT
#	Modification time:	15. 06. 2019 20:33

#	Program:	/corina/corina34_cracker 3.40 0067  02.08.2006

@<TRIPOS>MOLECULE
ASD03092906
  47   49    0    0    0
SMALL
NO_CHARGES


@<TRIPOS>ATOM
   1 C1            -0.0173     1.4248     0.0099 C.3     
   2 O2             0.0021    -0.0041     0.0020 O.3     
   3 C3             0.6518    -0.5703    -1.1379 C.3     
   4 C4             0.6131    -2.0967    -1.0411 C.3     
   5 H5             1.1847    -2.5275    -1.8631 H       
   6 N6            -0.7759    -2.5559    -1.1188 N.am    
   7 C7            -1.3564    -2.7464    -2.3202 C.2     
   8 O8            -0.7289    -2.5376    -3.3368 O.2     
   9 C9            -2.7853    -3.2187    -2.4002 C.3     
  10 H10           -3.0971    -3.9082    -1.6156 H       
  11 C11           -3.8275    -2.2305    -2.9274 C.3     
  12 C12           -3.3878    -3.4141    -3.7929 C.3     
  13 H13           -2.7507    -3.2009    -4.6513 H       
  14 C14           -4.3674    -4.5447    -3.9749 C.ar    
  15 C15           -5.5363    -4.5713    -3.2372 C.ar    
  16 C16           -6.4353    -5.6076    -3.4033 C.ar    
  17 C17           -6.1653    -6.6193    -4.3093 C.ar    
  18 F18           -7.0436    -7.6326    -4.4728 F       
  19 C19           -4.9944    -6.5913    -5.0479 C.ar    
  20 C20           -4.0991    -5.5514    -4.8836 C.ar    
  21 C21            1.2134    -2.5323     0.2708 C.ar    
  22 C22            0.4574    -2.4791     1.4272 C.ar    
  23 C23            1.0054    -2.8778     2.6310 C.ar    
  24 C24            2.3153    -3.3322     2.6789 C.ar    
  25 O25            2.8566    -3.7254     3.8618 O.3     
  26 C26            4.2105    -4.1818     3.8360 C.3     
  27 C27            3.0717    -3.3850     1.5171 C.ar    
  28 C28            2.5175    -2.9897     0.3150 C.ar    
  29 H29            1.0053     1.8021     0.0021 H       
  30 H30           -0.5445     1.7859    -0.8732 H       
  31 H31           -0.5275     1.7763     0.9067 H       
  32 H32            0.1385    -0.2506    -2.0447 H       
  33 H33            1.6883    -0.2344    -1.1694 H       
  34 H34           -1.2778    -2.7228    -0.3057 H       
  35 H35           -4.8251    -2.2701    -2.4901 H       
  36 H36           -3.4797    -1.2387    -3.2165 H       
  37 H37           -5.7467    -3.7821    -2.5306 H       
  38 H38           -7.3481    -5.6286    -2.8264 H       
  39 H39           -4.7826    -7.3800    -5.7546 H       
  40 H40           -3.1878    -5.5272    -5.4625 H       
  41 H41           -0.5623    -2.1253     1.3894 H       
  42 H42            0.4147    -2.8354     3.5342 H       
  43 H43            4.2902    -5.0455     3.1760 H       
  44 H44            4.8560    -3.3836     3.4695 H       
  45 H45            4.5180    -4.4643     4.8429 H       
  46 H46            4.0917    -3.7381     1.5518 H       
  47 H47            3.1045    -3.0345    -0.5904 H       
@<TRIPOS>BOND
   1    1    2 1
   2    1   29 1
   3    1   30 1
   4    1   31 1
   5    2    3 1
   6    3    4 1
   7    3   32 1
   8    3   33 1
   9    4    5 1
  10    4    6 1
  11    4   21 1
  12    6    7 am
  13    6   34 1
  14    7    8 2
  15    7    9 1
  16    9   10 1
  17    9   12 1
  18    9   11 1
  19   11   12 1
  20   11   35 1
  21   11   36 1
  22   12   13 1
  23   12   14 1
  24   14   20 ar
  25   14   15 ar
  26   15   16 ar
  27   15   37 1
  28   16   17 ar
  29   16   38 1
  30   17   18 1
  31   17   19 ar
  32   19   20 ar
  33   19   39 1
  34   20   40 1
  35   21   28 ar
  36   21   22 ar
  37   22   23 ar
  38   22   41 1
  39   23   24 ar
  40   23   42 1
  41   24   25 1
  42   24   27 ar
  43   25   26 1
  44   26   43 1
  45   26   44 1
  46   26   45 1
  47   27   28 ar
  48   27   46 1
  49   28   47 1

#	End of record

