#	Name: ASD03430151
#	Creating user name:	WinNT
#	Creation time:	15. 06. 2019 20:40

#	Modifying user name:	WinNT
#	Modification time:	15. 06. 2019 20:40

#	Program:	/corina/corina34_cracker 3.40 0067  02.08.2006

@<TRIPOS>MOLECULE
ASD03430151
  46   51    0    0    0
SMALL
NO_CHARGES


@<TRIPOS>ATOM
   1 C1            -0.0169     1.3928     0.0097 C.ar    
   2 C2             0.0021    -0.0041     0.0020 C.ar    
   3 C3             1.1908    -0.6691    -0.0092 C.ar    
   4 C4             2.4042     0.0261    -0.0025 C.ar    
   5 C5             2.3958     1.4150    -0.0031 C.ar    
   6 C6             1.1946     2.1061     0.0020 C.ar    
   7 O7             3.4619    -0.8331     0.0177 O.3     
   8 C8             1.5381    -2.1337    -0.0430 C.3     
   9 C9             3.0265    -2.1345    -0.4188 C.3     
  10 C10            0.4082    -3.8526     1.0004 C.ar    
  11 C11            1.2925    -2.8113     1.2719 C.ar    
  12 C12            0.7118    -2.8917    -1.0419 C.2     
  13 N13            0.0888    -3.8728    -0.3592 N.am    
  14 O14            0.6221    -2.6651    -2.2301 O.2     
  15 C15            1.7471    -2.5950     2.5535 C.ar    
  16 C16            1.3279    -3.4162     3.5856 C.ar    
  17 C17            0.4518    -4.4539     3.3272 C.ar    
  18 C18           -0.0073    -4.6744     2.0449 C.ar    
  19 C19           -1.0868     2.3929     0.0312 C.2     
  20 N20           -0.5253     3.5630     0.0239 N.2     
  21 O21            0.8804     3.4182     0.0012 O.3     
  22 C22           -0.8174    -4.8473    -0.9720 C.3     
  23 C23           -2.2265    -4.3140    -0.9369 C.2     
  24 C24           -2.5676     2.1144     0.0565 C.3     
  25 N25           -2.7807    -3.5924    -1.8643 N.2     
  26 C26           -4.0542    -3.3021    -1.4815 C.2     
  27 C27           -4.2498    -3.8864    -0.2671 C.2     
  28 O28           -3.1076    -4.5145     0.0533 O.3     
  29 C29           -5.0353    -2.5055    -2.2376 C.2     
  30 O30           -6.1465    -2.3184    -1.7823 O.2     
  31 O31           -4.7009    -1.9841    -3.4346 O.3     
  32 H32           -0.9258    -0.5567     0.0053 H       
  33 H33            3.3290     1.9585    -0.0070 H       
  34 H34            3.1533    -2.2436    -1.4959 H       
  35 H35            3.5599    -2.9203     0.1160 H       
  36 H36            2.4311    -1.7835     2.7535 H       
  37 H37            1.6848    -3.2469     4.5908 H       
  38 H38            0.1254    -5.0951     4.1326 H       
  39 H39           -0.6921    -5.4867     1.8507 H       
  40 H40           -0.5198    -5.0199    -2.0063 H       
  41 H41           -0.7701    -5.7853    -0.4189 H       
  42 H42           -2.9066     2.0445     1.0901 H       
  43 H43           -3.0981     2.9232    -0.4460 H       
  44 H44           -2.7693     1.1739    -0.4563 H       
  45 H45           -5.1532    -3.8539     0.3238 H       
  46 H46           -5.3782    -1.4685    -3.8935 H       
@<TRIPOS>BOND
   1    1    2 ar
   2    1    6 ar
   3    1   19 1
   4    2    3 ar
   5    2   32 1
   6    3    4 ar
   7    3    8 1
   8    4    5 ar
   9    4    7 1
  10    5    6 ar
  11    5   33 1
  12    6   21 1
  13    7    9 1
  14    8    9 1
  15    8   11 1
  16    8   12 1
  17    9   34 1
  18    9   35 1
  19   10   11 ar
  20   10   13 1
  21   10   18 ar
  22   11   15 ar
  23   12   13 am
  24   12   14 2
  25   13   22 1
  26   15   16 ar
  27   15   36 1
  28   16   17 ar
  29   16   37 1
  30   17   18 ar
  31   17   38 1
  32   18   39 1
  33   19   20 2
  34   19   24 1
  35   20   21 1
  36   22   23 1
  37   22   40 1
  38   22   41 1
  39   23   25 2
  40   23   28 1
  41   24   42 1
  42   24   43 1
  43   24   44 1
  44   25   26 1
  45   26   27 2
  46   26   29 1
  47   27   28 1
  48   27   45 1
  49   29   30 2
  50   29   31 1
  51   31   46 1

#	End of record

