#	Name: ASD01208931
#	Creating user name:	WinNT
#	Creation time:	15. 06. 2019 19:10

#	Modifying user name:	WinNT
#	Modification time:	15. 06. 2019 19:10

#	Program:	/corina/corina34_cracker 3.40 0067  02.08.2006

@<TRIPOS>MOLECULE
ASD01208931
  59   62    0    0    0
SMALL
NO_CHARGES


@<TRIPOS>ATOM
   1 C1            -0.2589     1.7854     0.5506 C.2     
   2 C2            -0.2281     0.3250     0.3238 C.ar    
   3 C3             0.9398    -0.2878    -0.1328 C.ar    
   4 C4             0.9644    -1.6563    -0.3440 C.ar    
   5 C5            -0.1700    -2.4180    -0.1029 C.ar    
   6 C6            -1.3331    -1.8131     0.3511 C.ar    
   7 C7            -1.3646    -0.4454     0.5710 C.ar    
   8 O8             0.7339     2.4543     0.3395 O.2     
   9 N9            -1.3893     2.3760     0.9863 N.am    
  10 O10           -2.4413    -2.5637     0.5857 O.3     
  11 C11           -3.4398    -2.5316    -0.3345 C.ar    
  12 C12           -4.6115    -3.2434    -0.1105 C.ar    
  13 C13           -5.6268    -3.2133    -1.0418 C.ar    
  14 C14           -5.4768    -2.4657    -2.2116 C.ar    
  15 C15           -4.2978    -1.7512    -2.4329 C.ar    
  16 C16           -3.2889    -1.7824    -1.4946 C.ar    
  17 O17           -6.5539    -1.7556    -4.3796 O.3     
  18 C18           -6.5629    -2.4312    -3.2129 C.2     
  19 N19           -7.7165    -3.0526    -3.1324 N.2     
  20 N20           -8.4117    -2.7944    -4.1838 N.2     
  21 C21           -7.7357    -2.0049    -4.9704 C.2     
  22 C22           -8.1954    -1.4689    -6.3017 C.3     
  23 O23            2.1011    -2.2539    -0.7886 O.3     
  24 C24            3.1050    -4.0024    -2.1211 C.3     
  25 C25            2.0231    -3.6465    -1.0994 C.3     
  26 C26            2.2355    -4.4661     0.1749 C.3     
  27 O27            4.3944    -3.8180    -1.5332 O.3     
  28 C28            5.4815    -4.1247    -2.4086 C.3     
  29 S29           -2.7791     4.6254     1.7486 S.3     
  30 C30           -1.4182     3.7481     1.1994 C.2     
  31 N31           -0.4171     4.5501     1.0116 N.2     
  32 C32           -0.6205     5.8293     1.2652 C.2     
  33 C33           -1.8521     6.1222     1.6874 C.2     
  34 C34           -2.3613     7.4941     2.0477 C.3     
  35 O35           -2.9137     8.1173     0.8865 O.3     
  36 H36            1.8230     0.3044    -0.3214 H       
  37 H37           -0.1475    -3.4849    -0.2694 H       
  38 H38           -2.2690     0.0242     0.9286 H       
  39 H39           -2.1827     1.8427     1.1510 H       
  40 H40           -4.7267    -3.8214     0.7945 H       
  41 H41           -6.5372    -3.7675    -0.8673 H       
  42 H42           -4.1782    -1.1718    -3.3364 H       
  43 H43           -2.3781    -1.2270    -1.6633 H       
  44 H44           -7.8987    -2.1576    -7.0928 H       
  45 H45           -9.2806    -1.3666    -6.2971 H       
  46 H46           -7.7394    -0.4947    -6.4782 H       
  47 H47            2.9897    -5.0429    -2.4248 H       
  48 H48            3.0076    -3.3563    -2.9935 H       
  49 H49            1.0415    -3.8712    -1.5166 H       
  50 H50            3.2172    -4.2414     0.5920 H       
  51 H51            1.4648    -4.2125     0.9027 H       
  52 H52            2.1760    -5.5284    -0.0622 H       
  53 H53            5.4154    -5.1676    -2.7183 H       
  54 H54            5.4334    -3.4810    -3.2870 H       
  55 H55            6.4248    -3.9592    -1.8881 H       
  56 H56            0.1476     6.5783     1.1411 H       
  57 H57           -3.1316     7.4060     2.8139 H       
  58 H58           -1.5381     8.0989     2.4279 H       
  59 H59           -3.2616     9.0056     1.0447 H       
@<TRIPOS>BOND
   1    1    2 1
   2    1    8 2
   3    1    9 am
   4    2    3 ar
   5    2    7 ar
   6    3    4 ar
   7    3   36 1
   8    4    5 ar
   9    4   23 1
  10    5    6 ar
  11    5   37 1
  12    6    7 ar
  13    6   10 1
  14    7   38 1
  15    9   30 1
  16    9   39 1
  17   10   11 1
  18   11   12 ar
  19   11   16 ar
  20   12   13 ar
  21   12   40 1
  22   13   14 ar
  23   13   41 1
  24   14   15 ar
  25   14   18 1
  26   15   16 ar
  27   15   42 1
  28   16   43 1
  29   17   18 1
  30   17   21 1
  31   18   19 2
  32   19   20 1
  33   20   21 2
  34   21   22 1
  35   22   44 1
  36   22   45 1
  37   22   46 1
  38   23   25 1
  39   24   25 1
  40   24   27 1
  41   24   47 1
  42   24   48 1
  43   25   26 1
  44   25   49 1
  45   26   50 1
  46   26   51 1
  47   26   52 1
  48   27   28 1
  49   28   53 1
  50   28   54 1
  51   28   55 1
  52   29   30 1
  53   29   33 1
  54   30   31 2
  55   31   32 1
  56   32   33 2
  57   32   56 1
  58   33   34 1
  59   34   35 1
  60   34   57 1
  61   34   58 1
  62   35   59 1

#	End of record

