#	Name: ASD01880289
#	Creating user name:	WinNT
#	Creation time:	15. 06. 2019 19:40

#	Modifying user name:	WinNT
#	Modification time:	15. 06. 2019 19:40

#	Program:	/corina/corina34_cracker 3.40 0067  02.08.2006

@<TRIPOS>MOLECULE
ASD01880289
  43   45    0    0    0
SMALL
NO_CHARGES


@<TRIPOS>ATOM
   1 C1            -0.0164     1.3606     0.0095 C.2     
   2 C2             0.0021    -0.0041     0.0020 C.2     
   3 N3            -1.1565    -0.7092     0.0093 N.am    
   4 C4            -2.3470    -0.0814     0.0241 C.2     
   5 C5            -2.4079     1.3233     0.0322 C.2     
   6 C6            -1.2519     2.0432     0.0309 C.2     
   7 O7            -3.3782    -0.7344     0.0300 O.2     
   8 C8            -1.1115    -2.1735     0.0005 C.3     
   9 C9            -1.0822    -2.6837     1.4182 C.ar    
  10 C10           -2.2655    -2.9544     2.0797 C.ar    
  11 C11           -2.2393    -3.4223     3.3800 C.ar    
  12 C12           -1.0284    -3.6198     4.0195 C.ar    
  13 C13            0.1555    -3.3486     3.3570 C.ar    
  14 C14            0.1281    -2.8861     2.0548 C.ar    
  15 Cl15          -0.9947    -4.2069     5.6529 Cl      
  16 C16            1.2565     2.1233     0.0015 C.ar    
  17 C17            1.5830     2.9253    -1.0905 C.ar    
  18 C18            2.7669     3.6330    -1.0952 C.ar    
  19 C19            3.6330     3.5467    -0.0138 C.ar    
  20 C20            3.3105     2.7487     1.0753 C.ar    
  21 C21            2.1251     2.0435     1.0883 C.ar    
  22 C22           -3.7408     2.0261     0.0482 C.3     
  23 O23           -3.5338     3.4400     0.0539 O.3     
  24 O24            4.7992     4.2445    -0.0216 O.3     
  25 C25            5.6434     4.1098     1.1234 C.3     
  26 H26            0.9471    -0.5268    -0.0102 H       
  27 H27           -1.2801     3.1228     0.0374 H       
  28 H28           -1.9949    -2.5611    -0.5069 H       
  29 H29           -0.2158    -2.5063    -0.5240 H       
  30 H30           -3.2107    -2.7999     1.5805 H       
  31 H31           -3.1638    -3.6335     3.8968 H       
  32 H32            1.1010    -3.5026     3.8557 H       
  33 H33            1.0522    -2.6744     1.5375 H       
  34 H34            0.9099     2.9923    -1.9324 H       
  35 H35            3.0205     4.2547    -1.9411 H       
  36 H36            3.9865     2.6833     1.9150 H       
  37 H37            1.8748     1.4228     1.9359 H       
  38 H38           -4.3100     1.7458    -0.8382 H       
  39 H39           -4.2937     1.7363     0.9417 H       
  40 H40           -4.3508     3.9571     0.0641 H       
  41 H41            5.1075     4.4449     2.0114 H       
  42 H42            5.9283     3.0646     1.2439 H       
  43 H43            6.5385     4.7171     0.9884 H       
@<TRIPOS>BOND
   1    1    2 2
   2    1   16 1
   3    1    6 1
   4    2    3 1
   5    2   26 1
   6    3    4 am
   7    3    8 1
   8    4    5 1
   9    4    7 2
  10    5    6 2
  11    5   22 1
  12    6   27 1
  13    8    9 1
  14    8   28 1
  15    8   29 1
  16    9   10 ar
  17    9   14 ar
  18   10   11 ar
  19   10   30 1
  20   11   12 ar
  21   11   31 1
  22   12   13 ar
  23   12   15 1
  24   13   14 ar
  25   13   32 1
  26   14   33 1
  27   16   17 ar
  28   16   21 ar
  29   17   18 ar
  30   17   34 1
  31   18   19 ar
  32   18   35 1
  33   19   20 ar
  34   19   24 1
  35   20   21 ar
  36   20   36 1
  37   21   37 1
  38   22   23 1
  39   22   38 1
  40   22   39 1
  41   23   40 1
  42   24   25 1
  43   25   41 1
  44   25   42 1
  45   25   43 1

#	End of record

