#	Name: ASD01916633
#	Creating user name:	WinNT
#	Creation time:	15. 06. 2019 20:07

#	Modifying user name:	WinNT
#	Modification time:	15. 06. 2019 20:07

#	Program:	/corina/corina34_cracker 3.40 0067  02.08.2006

@<TRIPOS>MOLECULE
ASD01916633
  46   50    0    0    0
SMALL
NO_CHARGES


@<TRIPOS>ATOM
   1 C1            -0.0171     1.4098     0.0098 C.ar    
   2 C2             0.0021    -0.0041     0.0020 C.ar    
   3 C3            -1.1921    -0.7256    -0.0022 C.ar    
   4 C4            -2.3850    -0.0642     0.0043 C.ar    
   5 C5            -2.4223     1.3384     0.0153 C.ar    
   6 C6            -1.2410     2.0763     0.0188 C.ar    
   7 N7             1.1593     2.0898     0.0022 N.2     
   8 C8             2.2959     1.4678    -0.0102 C.2     
   9 N9             2.4034     0.1123     0.0308 N.am    
  10 C10            1.3113    -0.6764     0.0030 C.2     
  11 C11           -3.6838     2.0161     0.0230 C.1     
  12 O12            1.4033    -1.8901    -0.0203 O.2     
  13 C13           -4.7180     2.5716     0.0293 C.1     
  14 C14           -5.9795     3.2492     0.0371 C.ar    
  15 N15           -6.0147     4.5782     0.0475 N.ar    
  16 C16           -7.1545     5.2378     0.0544 C.ar    
  17 C17           -8.3643     4.5671     0.0511 C.ar    
  18 C18           -8.3747     3.1788     0.0403 C.ar    
  19 C19           -7.1646     2.5090     0.0278 C.ar    
  20 C20            3.6001     2.2346    -0.1153 C.3     
  21 C21            4.1604     1.9971    -1.5103 C.3     
  22 C22            5.1344     0.8216    -1.5757 C.3     
  23 C23            4.4317    -0.5142    -1.2064 C.3     
  24 C24            3.7531    -0.4615     0.1412 C.3     
  25 C25            5.3490     0.5746    -3.1028 C.3     
  26 O26            4.3028    -0.3090    -3.5336 O.3     
  27 C27            3.4951    -0.7047    -2.4040 C.3     
  28 H28            6.0520     0.9952    -1.0135 H       
  29 H29            5.1675    -1.3184    -1.2074 H       
  30 H30           -1.1719    -1.8054    -0.0109 H       
  31 H31           -3.3082    -0.6246     0.0005 H       
  32 H32           -1.2732     3.1558     0.0280 H       
  33 H33           -7.1446     6.3178     0.0632 H       
  34 H34           -9.2928     5.1187     0.0572 H       
  35 H35           -9.3071     2.6339     0.0374 H       
  36 H36           -7.1361     1.4294     0.0192 H       
  37 H37            3.4167     3.2987     0.0336 H       
  38 H38            4.3043     1.8713     0.6331 H       
  39 H39            3.3322     1.8040    -2.1921 H       
  40 H40            4.6775     2.8989    -1.8381 H       
  41 H41            4.3483     0.1518     0.8178 H       
  42 H42            3.6807    -1.4713     0.5452 H       
  43 H43            5.2865     1.5181    -3.6450 H       
  44 H44            6.3210     0.1112    -3.2721 H       
  45 H45            3.1954    -1.7488    -2.4941 H       
  46 H46            2.6208    -0.0602    -2.3133 H       
@<TRIPOS>BOND
   1    1    2 ar
   2    1    7 1
   3    1    6 ar
   4    2    3 ar
   5    2   10 1
   6    3    4 ar
   7    3   30 1
   8    4    5 ar
   9    4   31 1
  10    5    6 ar
  11    5   11 1
  12    6   32 1
  13    7    8 2
  14    8    9 1
  15    8   20 1
  16    9   10 am
  17    9   24 1
  18   10   12 2
  19   11   13 3
  20   13   14 1
  21   14   15 ar
  22   14   19 ar
  23   15   16 ar
  24   16   17 ar
  25   16   33 1
  26   17   18 ar
  27   17   34 1
  28   18   19 ar
  29   18   35 1
  30   19   36 1
  31   20   21 1
  32   20   37 1
  33   20   38 1
  34   21   22 1
  35   21   39 1
  36   21   40 1
  37   22   23 1
  38   22   25 1
  39   22   28 1
  40   23   24 1
  41   23   29 1
  42   23   27 1
  43   24   41 1
  44   24   42 1
  45   25   26 1
  46   25   43 1
  47   25   44 1
  48   26   27 1
  49   27   45 1
  50   27   46 1

#	End of record

