#	Name: ASD03430412
#	Creating user name:	WinNT
#	Creation time:	15. 06. 2019 20:41

#	Modifying user name:	WinNT
#	Modification time:	15. 06. 2019 20:41

#	Program:	/corina/corina34_cracker 3.40 0067  02.08.2006

@<TRIPOS>MOLECULE
ASD03430412
  59   64    0    0    0
SMALL
NO_CHARGES


@<TRIPOS>ATOM
   1 N1            -0.0157     1.4932     0.4902 N.am    
   2 C2             0.0409     0.2263     0.9344 C.2     
   3 C3             1.4804    -0.0488     1.3139 C.3     
   4 C4             2.1944     1.2486     1.0120 C.ar    
   5 C5             3.5067     1.6460     1.1357 C.ar    
   6 C6             3.8770     2.9284     0.7700 C.ar    
   7 C7             2.9262     3.8060     0.2815 C.ar    
   8 C8             1.6106     3.4104     0.1566 C.ar    
   9 C9             1.2302     2.1206     0.5228 C.ar    
  10 O10           -0.8869    -0.5506     1.0164 O.2     
  11 C11            1.7759    -0.2741     7.7594 C.3     
  12 C12            0.5370     0.5699     7.4334 C.3     
  13 C13            0.7585     1.2449     6.0776 C.3     
  14 C14            1.2427     0.2267     5.0763 C.ar    
  15 C15            1.1499     0.5244     3.7263 C.ar    
  16 C16            1.5858    -0.3807     2.7801 C.ar    
  17 C17            2.1210    -1.5972     3.1804 C.ar    
  18 C18            2.2141    -1.8986     4.5285 C.ar    
  19 C19            1.7733    -0.9862     5.4808 C.ar    
  20 O20            1.8736    -1.3216     6.7934 O.3     
  21 O21            2.5521    -2.4904     2.2513 O.3     
  22 C22           -1.2434     2.1395     0.0197 C.3     
  23 C23           -0.9991     2.7578    -1.3327 C.ar    
  24 C24           -1.5150     4.0065    -1.6251 C.ar    
  25 C25           -1.2909     4.5737    -2.8657 C.ar    
  26 C26           -0.5505     3.8925    -3.8136 C.ar    
  27 C27           -0.0338     2.6442    -3.5208 C.ar    
  28 C28           -0.2542     2.0788    -2.2788 C.ar    
  29 C29           -2.3417     1.1132    -0.0882 C.ar    
  30 C30           -3.4804     1.2356     0.6859 C.ar    
  31 C31           -4.4879     0.2942     0.5870 C.ar    
  32 C32           -4.3568    -0.7692    -0.2864 C.ar    
  33 C33           -3.2185    -0.8911    -1.0612 C.ar    
  34 C34           -2.2129     0.0527    -0.9654 C.ar    
  35 H35            1.8871    -0.8585     0.7079 H       
  36 H36            4.2463     0.9579     1.5179 H       
  37 H37            4.9056     3.2431     0.8662 H       
  38 H38            3.2153     4.8068    -0.0034 H       
  39 H39            0.8740     4.1015    -0.2257 H       
  40 H40            2.6679     0.3507     7.7149 H       
  41 H41            1.6763    -0.7024     8.7567 H       
  42 H42           -0.3426    -0.0720     7.3849 H       
  43 H43            0.3966     1.3289     8.2031 H       
  44 H44           -0.1797     1.6774     5.7302 H       
  45 H45            1.5038     2.0334     6.1824 H       
  46 H46            0.7338     1.4704     3.4126 H       
  47 H47            2.6306    -2.8447     4.8413 H       
  48 H48            3.4821    -2.3864     2.0076 H       
  49 H49           -1.5392     2.9153     0.7259 H       
  50 H50           -2.0935     4.5388    -0.8845 H       
  51 H51           -1.6946     5.5490    -3.0944 H       
  52 H52           -0.3760     4.3353    -4.7831 H       
  53 H53            0.5444     2.1118    -4.2615 H       
  54 H54            0.1526     1.1052    -2.0487 H       
  55 H55           -3.5828     2.0664     1.3683 H       
  56 H56           -5.3772     0.3894     1.1923 H       
  57 H57           -5.1436    -1.5051    -0.3632 H       
  58 H58           -3.1159    -1.7221    -1.7433 H       
  59 H59           -1.3252    -0.0405    -1.5734 H       
@<TRIPOS>BOND
   1    1    2 am
   2    1    9 1
   3    1   22 1
   4    2    3 1
   5    2   10 2
   6    3    4 1
   7    3   16 1
   8    3   35 1
   9    4    5 ar
  10    4    9 ar
  11    5    6 ar
  12    5   36 1
  13    6    7 ar
  14    6   37 1
  15    7    8 ar
  16    7   38 1
  17    8    9 ar
  18    8   39 1
  19   11   12 1
  20   11   20 1
  21   11   40 1
  22   11   41 1
  23   12   13 1
  24   12   42 1
  25   12   43 1
  26   13   14 1
  27   13   44 1
  28   13   45 1
  29   14   15 ar
  30   14   19 ar
  31   15   16 ar
  32   15   46 1
  33   16   17 ar
  34   17   18 ar
  35   17   21 1
  36   18   19 ar
  37   18   47 1
  38   19   20 1
  39   21   48 1
  40   22   23 1
  41   22   29 1
  42   22   49 1
  43   23   24 ar
  44   23   28 ar
  45   24   25 ar
  46   24   50 1
  47   25   26 ar
  48   25   51 1
  49   26   27 ar
  50   26   52 1
  51   27   28 ar
  52   27   53 1
  53   28   54 1
  54   29   30 ar
  55   29   34 ar
  56   30   31 ar
  57   30   55 1
  58   31   32 ar
  59   31   56 1
  60   32   33 ar
  61   32   57 1
  62   33   34 ar
  63   33   58 1
  64   34   59 1

#	End of record

