#	Name: ASD03730997
#	Creating user name:	WinNT
#	Creation time:	15. 06. 2019 20:45

#	Modifying user name:	WinNT
#	Modification time:	15. 06. 2019 20:45

#	Program:	/corina/corina34_cracker 3.40 0067  02.08.2006

@<TRIPOS>MOLECULE
ASD03730997
  56   62    0    0    0
SMALL
NO_CHARGES


@<TRIPOS>ATOM
   1 C1            -0.0170     1.4028     0.0098 C.ar    
   2 C2             0.0021    -0.0041     0.0020 C.ar    
   3 C3             1.2249    -0.6759    -0.0133 C.ar    
   4 C4             2.4043     0.0398    -0.0207 C.ar    
   5 C5             2.3840     1.4244    -0.0131 C.ar    
   6 C6             1.1836     2.1065     0.0021 C.ar    
   7 C7            -1.3077     2.1308     0.0198 C.ar    
   8 C8            -1.5321     3.1448     0.9502 C.ar    
   9 C9            -2.7360     3.8192     0.9548 C.ar    
  10 C10           -3.7194     3.4907     0.0390 C.ar    
  11 C11           -3.5027     2.4853    -0.8862 C.ar    
  12 C12           -2.3004     1.8084    -0.9048 C.ar    
  13 C13           -1.2254    -0.7415     0.0103 C.1     
  14 N14           -2.1992    -1.3266     0.0168 N.1     
  15 C15           -5.0322     4.2306     0.0496 C.3     
  16 O16           -0.9326     5.8622    -5.6269 O.3     
  17 C17           -0.5460     6.7146    -6.7209 C.3     
  18 O18           -1.7993     7.2068    -7.2308 O.3     
  19 C19           -2.6600     7.1833    -6.1708 C.ar    
  20 C20           -2.1269     6.3554    -5.1853 C.ar    
  21 C21           -3.8744     7.8122    -5.9633 C.ar    
  22 C22           -4.5724     7.6231    -4.7743 C.ar    
  23 C23           -4.0338     6.7873    -3.8007 C.ar    
  24 C24           -2.8202     6.1636    -4.0021 C.ar    
  25 O25           -5.7604     8.1547    -4.3667 O.3     
  26 C26           -5.0191     6.7636    -2.6629 C.3     
  27 C27           -6.2875     7.3651    -3.2832 C.3     
  28 N28           -4.9425     5.3969    -0.8325 N.am    
  29 C29           -5.2542     5.3744    -2.1437 C.2     
  30 C30           -4.5448     7.5552    -1.4805 C.ar    
  31 C31           -4.1704     8.8684    -1.3030 C.ar    
  32 C32           -3.7707     9.3124    -0.0551 C.ar    
  33 C33           -3.7474     8.4341     1.0130 C.ar    
  34 C34           -4.1205     7.1176     0.8401 C.ar    
  35 C35           -4.5247     6.6620    -0.4124 C.ar    
  36 O36           -5.6479     4.4194    -2.7794 O.2     
  37 H37            1.2480    -1.7557    -0.0189 H       
  38 H38            3.3492    -0.4830    -0.0322 H       
  39 H39            3.3134     1.9745    -0.0186 H       
  40 H40            1.1764     3.1864     0.0076 H       
  41 H41           -0.7653     3.4017     1.6661 H       
  42 H42           -2.9110     4.6048     1.6750 H       
  43 H43           -4.2743     2.2329    -1.5985 H       
  44 H44           -2.1305     1.0269    -1.6307 H       
  45 H45           -5.8247     3.5697    -0.3015 H       
  46 H46           -5.2560     4.5591     1.0645 H       
  47 H47            0.0725     7.5384    -6.3645 H       
  48 H48           -0.0200     6.1423    -7.4850 H       
  49 H49           -4.2837     8.4544    -6.7292 H       
  50 H50           -2.4097     5.5236    -3.2350 H       
  51 H51           -6.8092     7.9953    -2.5630 H       
  52 H52           -6.9439     6.5805    -3.6596 H       
  53 H53           -4.1892     9.5525    -2.1385 H       
  54 H54           -3.4778    10.3425     0.0847 H       
  55 H55           -3.4352     8.7807     1.9871 H       
  56 H56           -4.0992     6.4376     1.6789 H       
@<TRIPOS>BOND
   1    1    2 ar
   2    1    6 ar
   3    1    7 1
   4    2    3 ar
   5    2   13 1
   6    3    4 ar
   7    3   37 1
   8    4    5 ar
   9    4   38 1
  10    5    6 ar
  11    5   39 1
  12    6   40 1
  13    7    8 ar
  14    7   12 ar
  15    8    9 ar
  16    8   41 1
  17    9   10 ar
  18    9   42 1
  19   10   11 ar
  20   10   15 1
  21   11   12 ar
  22   11   43 1
  23   12   44 1
  24   13   14 3
  25   15   28 1
  26   15   45 1
  27   15   46 1
  28   16   17 1
  29   16   20 1
  30   17   18 1
  31   17   47 1
  32   17   48 1
  33   18   19 1
  34   19   20 ar
  35   19   21 ar
  36   20   24 ar
  37   21   22 ar
  38   21   49 1
  39   22   23 ar
  40   22   25 1
  41   23   24 ar
  42   23   26 1
  43   24   50 1
  44   25   27 1
  45   26   27 1
  46   26   29 1
  47   26   30 1
  48   27   51 1
  49   27   52 1
  50   28   29 am
  51   28   35 1
  52   29   36 2
  53   30   31 ar
  54   30   35 ar
  55   31   32 ar
  56   31   53 1
  57   32   33 ar
  58   32   54 1
  59   33   34 ar
  60   33   55 1
  61   34   35 ar
  62   34   56 1

#	End of record

