#	Name: ASD01820238
#	Creating user name:	WinNT
#	Creation time:	15. 06. 2019 19:36

#	Modifying user name:	WinNT
#	Modification time:	15. 06. 2019 19:36

#	Program:	/corina/corina34_cracker 3.40 0067  02.08.2006

@<TRIPOS>MOLECULE
ASD01820238
 154  173    0    0    0
SMALL
NO_CHARGES


@<TRIPOS>ATOM
   1 I1             0.9464     4.7584     5.3482 I       
   2 C2             0.2458     5.1400     3.4110 C.ar    
   3 C3            -0.1653     6.4165     3.0656 C.ar    
   4 C4            -0.6294     6.6795     1.7915 C.ar    
   5 C5            -0.6862     5.6627     0.8487 C.ar    
   6 C6            -0.2703     4.3699     1.1954 C.ar    
   7 C7             0.2013     4.1192     2.4829 C.ar    
   8 C8            -0.3265     3.2778     0.1979 C.ar    
   9 C9            -1.5388     2.6901    -0.1824 C.ar    
  10 C10           -1.5910     1.6741    -1.1108 C.ar    
  11 C11           -0.4438     1.1736    -1.7237 C.ar    
  12 C12            0.7594     1.7377    -1.3641 C.ar    
  13 C13            0.8370     2.7801    -0.4220 C.ar    
  14 C14            2.2392     3.1508    -0.2649 C.2     
  15 O15            2.6505     4.0208     0.4769 O.2     
  16 O16            3.0121     2.3871    -1.0632 O.3     
  17 C17            2.1626     1.4623    -1.8053 C.3     
  18 C18            2.5458     0.0475    -1.4644 C.ar    
  19 C19            2.8030    -0.2856    -0.1463 C.ar    
  20 C20            3.1570    -1.5786     0.1883 C.ar    
  21 C21            3.2553    -2.5455    -0.7953 C.ar    
  22 C22            2.9987    -2.2193    -2.1117 C.ar    
  23 C23            2.6413    -0.9192    -2.4519 C.ar    
  24 O24            2.3881    -0.6219    -3.7486 O.3     
  25 C25            2.4206     0.6631    -4.1747 C.ar    
  26 C26            2.3159     1.7161    -3.2808 C.ar    
  27 C27            2.3502     3.0197    -3.7436 C.ar    
  28 C28            2.4881     3.2748    -5.0946 C.ar    
  29 C29            2.5933     2.2260    -5.9895 C.ar    
  30 C30            2.5606     0.9235    -5.5335 C.ar    
  31 N31           -1.1551     5.9259    -0.4374 N.pl3   
  32 C32           -1.4214     7.2298    -0.8246 C.ar    
  33 C33           -0.5617     7.8910    -1.7143 C.ar    
  34 C34           -0.8346     9.2068    -2.1021 C.ar    
  35 C35           -1.9434     9.8595    -1.6153 C.ar    
  36 C36           -2.8089     9.2161    -0.7294 C.ar    
  37 C37           -2.5535     7.8928    -0.3343 C.ar    
  38 C38           -3.4677     7.2077     0.6038 C.ar    
  39 C39           -3.1658     7.0806     1.9658 C.ar    
  40 C40           -4.0175     6.4417     2.8392 C.ar    
  41 C41           -5.2254     5.8864     2.4205 C.ar    
  42 C42           -5.5424     6.0006     1.0856 C.ar    
  43 C43           -4.6913     6.6536     0.1751 C.ar    
  44 C44           -5.3090     6.6027    -1.1453 C.2     
  45 O45           -4.8300     7.0760    -2.1568 O.2     
  46 O46           -6.4889     5.9534    -1.0798 O.3     
  47 C47           -6.7273     5.5371     0.2978 C.3     
  48 C48           -6.8348     4.0372     0.3558 C.ar    
  49 C49           -5.9428     3.2658    -0.3682 C.ar    
  50 C50           -6.0239     1.8870    -0.3287 C.ar    
  51 C51           -6.9991     1.2729     0.4354 C.ar    
  52 C52           -7.8914     2.0373     1.1598 C.ar    
  53 C53           -7.8114     3.4251     1.1240 C.ar    
  54 O54           -8.6928     4.1560     1.8471 O.3     
  55 C55           -8.9047     5.4605     1.5513 C.ar    
  56 C56           -7.9887     6.1827     0.8045 C.ar    
  57 C57           -8.2296     7.5150     0.5186 C.ar    
  58 C58           -9.3804     8.1277     0.9761 C.ar    
  59 C59          -10.2972     7.4093     1.7213 C.ar    
  60 C60          -10.0627     6.0799     2.0084 C.ar    
  61 C61           -3.9990     9.9262    -0.2111 C.ar    
  62 C62           -5.0746    10.2631    -1.0415 C.ar    
  63 C63           -6.1825    10.9249    -0.5587 C.ar    
  64 C64           -6.2964    11.2953     0.7795 C.ar    
  65 C65           -5.2488    10.9726     1.6141 C.ar    
  66 C66           -4.1106    10.2929     1.1451 C.ar    
  67 C67           -3.1954    10.1050     2.2671 C.2     
  68 O68           -2.1158     9.5519     2.2000 O.2     
  69 O69           -3.7233    10.6359     3.3882 O.3     
  70 C70           -5.0291    11.2060     3.0759 C.3     
  71 C71           -5.0139    12.6819     3.3693 C.ar    
  72 C72           -3.9151    13.4354     2.9955 C.ar    
  73 C73           -3.8805    14.7919     3.2561 C.ar    
  74 C74           -4.9460    15.4015     3.8926 C.ar    
  75 C75           -6.0452    14.6552     4.2666 C.ar    
  76 C76           -6.0840    13.2900     4.0048 C.ar    
  77 O77           -7.1744    12.5775     4.3752 O.3     
  78 C78           -7.1025    11.2306     4.4968 C.ar    
  79 C79           -6.0865    10.5107     3.8905 C.ar    
  80 C80           -6.0383     9.1348     4.0295 C.ar    
  81 C81           -7.0008     8.4764     4.7707 C.ar    
  82 C82           -8.0162     9.1922     5.3777 C.ar    
  83 C83           -8.0680    10.5648     5.2440 C.ar    
  84 C84            0.6290     7.1994    -2.2399 C.2     
  85 O85            0.5708     6.0180    -2.5224 O.2     
  86 N86            1.7823     7.8763    -2.4074 N.am    
  87 C87            3.1133     7.5806    -2.9586 C.3     
  88 C88            3.6808     8.6554    -2.0211 C.3     
  89 C89            2.2616     9.2378    -2.1255 C.3     
  90 C90            4.0520     8.1410    -0.6288 C.3     
  91 C91            2.8767     7.3524    -0.0465 C.3     
  92 C92            3.2452     6.8568     1.3546 C.3     
  93 C93            3.6100     8.0571     2.2325 C.3     
  94 C94            4.7639     8.8252     1.5841 C.3     
  95 N95            4.3615     9.2786     0.2466 N.3     
  96 C96            4.7635     9.5317    -2.6541 C.3     
  97 O97            5.4080     9.0461    -3.8335 O.3     
  98 C98            4.4861    10.1183    -4.0397 C.3     
  99 H99           -0.1231     7.2106     3.7964 H       
 100 H100          -0.9488     7.6772     1.5289 H       
 101 H101           0.5233     3.1254     2.7567 H       
 102 H102          -2.4570     3.0424     0.2640 H       
 103 H103          -2.5503     1.2520    -1.3715 H       
 104 H104          -0.4965     0.3762    -2.4502 H       
 105 H105           2.7270     0.4678     0.6238 H       
 106 H106           3.3574    -1.8342     1.2183 H       
 107 H107           3.5331    -3.5558    -0.5336 H       
 108 H108           3.0764    -2.9752    -2.8792 H       
 109 H109           2.2684     3.8406    -3.0466 H       
 110 H110           2.5134     4.2938    -5.4517 H       
 111 H111           2.7010     2.4259    -7.0454 H       
 112 H112           2.6435     0.1053    -6.2335 H       
 113 H113          -1.2951     5.1965    -1.0614 H       
 114 H114          -0.1709     9.7134    -2.7872 H       
 115 H115          -2.1451    10.8758    -1.9202 H       
 116 H116          -2.2411     7.4940     2.3405 H       
 117 H117          -3.7408     6.3684     3.8805 H       
 118 H118          -5.8852     5.3869     3.1145 H       
 119 H119          -5.1804     3.7431    -0.9658 H       
 120 H120          -5.3256     1.2887    -0.8951 H       
 121 H121          -7.0629     0.1952     0.4651 H       
 122 H122          -8.6528     1.5565     1.7561 H       
 123 H123          -7.5153     8.0781    -0.0638 H       
 124 H124          -9.5639     9.1681     0.7518 H       
 125 H125         -11.1969     7.8884     2.0782 H       
 126 H126         -10.7797     5.5196     2.5901 H       
 127 H127          -5.0348     9.9976    -2.0876 H       
 128 H128          -6.9870    11.1641    -1.2384 H       
 129 H129          -7.1692    11.8143     1.1471 H       
 130 H130          -3.0815    12.9614     2.4987 H       
 131 H131          -3.0209    15.3761     2.9628 H       
 132 H132          -4.9179    16.4615     4.0975 H       
 133 H133          -6.8767    15.1324     4.7639 H       
 134 H134          -5.2459     8.5735     3.5568 H       
 135 H135          -6.9602     7.4023     4.8756 H       
 136 H136          -8.7684     8.6772     5.9568 H       
 137 H137          -8.8609    11.1231     5.7195 H       
 138 H138           3.4646     6.5747    -2.7287 H       
 139 H139           3.2110     7.8305    -4.0151 H       
 140 H140           2.1358     9.9276    -2.9600 H       
 141 H141           1.8878     9.6413    -1.1844 H       
 142 H142           4.9243     7.4915    -0.7023 H       
 143 H143           2.0003     7.9975     0.0145 H       
 144 H144           2.6573     6.4992    -0.6884 H       
 145 H145           2.3953     6.3316     1.7904 H       
 146 H146           4.0978     6.1808     1.2893 H       
 147 H147           2.7450     8.7133     2.3294 H       
 148 H148           3.9144     7.7074     3.2189 H       
 149 H149           5.0166     9.6887     2.1995 H       
 150 H150           5.6329     8.1725     1.5002 H       
 151 H151           5.0700     9.8683    -0.1637 H       
 152 H152           5.3566    10.1264    -1.9594 H       
 153 H153           3.5306     9.8835    -4.5087 H       
 154 H154           4.8948    11.1033    -4.2654 H       
@<TRIPOS>BOND
   1    1    2 1
   2    2    3 ar
   3    2    7 ar
   4    3    4 ar
   5    3   99 1
   6    4    5 ar
   7    4  100 1
   8    5    6 ar
   9    5   31 1
  10    6    7 ar
  11    6    8 1
  12    7  101 1
  13    8    9 ar
  14    8   13 ar
  15    9   10 ar
  16    9  102 1
  17   10   11 ar
  18   10  103 1
  19   11   12 ar
  20   11  104 1
  21   12   13 ar
  22   12   17 1
  23   13   14 1
  24   14   15 2
  25   14   16 1
  26   16   17 1
  27   17   18 1
  28   17   26 1
  29   18   19 ar
  30   18   23 ar
  31   19   20 ar
  32   19  105 1
  33   20   21 ar
  34   20  106 1
  35   21   22 ar
  36   21  107 1
  37   22   23 ar
  38   22  108 1
  39   23   24 1
  40   24   25 1
  41   25   26 ar
  42   25   30 ar
  43   26   27 ar
  44   27   28 ar
  45   27  109 1
  46   28   29 ar
  47   28  110 1
  48   29   30 ar
  49   29  111 1
  50   30  112 1
  51   31   32 1
  52   31  113 1
  53   32   33 ar
  54   32   37 ar
  55   33   34 ar
  56   33   84 1
  57   34   35 ar
  58   34  114 1
  59   35   36 ar
  60   35  115 1
  61   36   37 ar
  62   36   61 1
  63   37   38 1
  64   38   39 ar
  65   38   43 ar
  66   39   40 ar
  67   39  116 1
  68   40   41 ar
  69   40  117 1
  70   41   42 ar
  71   41  118 1
  72   42   43 ar
  73   42   47 1
  74   43   44 1
  75   44   45 2
  76   44   46 1
  77   46   47 1
  78   47   48 1
  79   47   56 1
  80   48   49 ar
  81   48   53 ar
  82   49   50 ar
  83   49  119 1
  84   50   51 ar
  85   50  120 1
  86   51   52 ar
  87   51  121 1
  88   52   53 ar
  89   52  122 1
  90   53   54 1
  91   54   55 1
  92   55   56 ar
  93   55   60 ar
  94   56   57 ar
  95   57   58 ar
  96   57  123 1
  97   58   59 ar
  98   58  124 1
  99   59   60 ar
 100   59  125 1
 101   60  126 1
 102   61   62 ar
 103   61   66 ar
 104   62   63 ar
 105   62  127 1
 106   63   64 ar
 107   63  128 1
 108   64   65 ar
 109   64  129 1
 110   65   66 ar
 111   65   70 1
 112   66   67 1
 113   67   68 2
 114   67   69 1
 115   69   70 1
 116   70   71 1
 117   70   79 1
 118   71   72 ar
 119   71   76 ar
 120   72   73 ar
 121   72  130 1
 122   73   74 ar
 123   73  131 1
 124   74   75 ar
 125   74  132 1
 126   75   76 ar
 127   75  133 1
 128   76   77 1
 129   77   78 1
 130   78   79 ar
 131   78   83 ar
 132   79   80 ar
 133   80   81 ar
 134   80  134 1
 135   81   82 ar
 136   81  135 1
 137   82   83 ar
 138   82  136 1
 139   83  137 1
 140   84   85 2
 141   84   86 am
 142   86   87 1
 143   86   89 1
 144   87   88 1
 145   87  138 1
 146   87  139 1
 147   88   89 1
 148   88   96 1
 149   88   90 1
 150   89  140 1
 151   89  141 1
 152   90   91 1
 153   90   95 1
 154   90  142 1
 155   91   92 1
 156   91  143 1
 157   91  144 1
 158   92   93 1
 159   92  145 1
 160   92  146 1
 161   93   94 1
 162   93  147 1
 163   93  148 1
 164   94   95 1
 165   94  149 1
 166   94  150 1
 167   95  151 1
 168   96   97 1
 169   96   98 1
 170   96  152 1
 171   97   98 1
 172   98  153 1
 173   98  154 1

#	End of record

