#	Name: ASD01870535
#	Creating user name:	WinNT
#	Creation time:	15. 06. 2019 19:39

#	Modifying user name:	WinNT
#	Modification time:	15. 06. 2019 19:39

#	Program:	/corina/corina34_cracker 3.40 0067  02.08.2006

@<TRIPOS>MOLECULE
ASD01870535
  47   50    0    0    0
SMALL
NO_CHARGES


@<TRIPOS>ATOM
   1 C1            -0.0159     1.3232     0.0093 C.ar    
   2 N2             0.0021    -0.0041     0.0020 N.ar    
   3 C3             1.1541    -0.6593    -0.0133 C.ar    
   4 N4             2.3133    -0.0211    -0.0187 N.ar    
   5 C5             2.3690     1.3086    -0.0085 C.ar    
   6 C6             1.1972     2.0243     0.0015 C.ar    
   7 C7             1.1598     3.5275    -0.0021 C.3     
   8 C8             3.7217     1.9677     0.0002 C.3     
   9 C9             3.6060     3.4317    -0.4215 C.3     
  10 C10            2.5128     4.0967     0.4230 C.3     
  11 N11           -1.2204     2.0073     0.0187 N.pl3   
  12 C12           -2.4840     1.2659     0.0207 C.3     
  13 S13            1.1418    -2.4212    -0.0262 S.3     
  14 C14           -0.6428    -2.7231    -0.0122 C.3     
  15 C15           -0.9051    -4.2305    -0.0210 C.3     
  16 O16           -2.3140    -4.4689    -0.0099 O.3     
  17 C17           -4.8560     1.7480     0.2148 C.ar    
  18 C18           -4.4851     1.1189     1.3883 C.ar    
  19 C19           -2.9762     1.0245     1.4635 C.3     
  20 C20           -3.6218     2.1193    -0.5790 C.3     
  21 C21           -7.1648     1.5153     0.8196 C.ar    
  22 C22           -6.7938     0.8853     1.9930 C.ar    
  23 C23           -5.4566     0.6883     2.2765 C.ar    
  24 C24           -6.1975     1.9449    -0.0675 C.ar    
  25 H25            0.9199     3.8796    -1.0054 H       
  26 H26            0.3910     3.8705     0.6902 H       
  27 H27            4.1421     1.9141     1.0044 H       
  28 H28            4.3818     1.4446    -0.6917 H       
  29 H29            4.5569     3.9374    -0.2535 H       
  30 H30            3.3390     3.4889    -1.4767 H       
  31 H31            2.5257     5.1738     0.2567 H       
  32 H32            2.6846     3.8838     1.4781 H       
  33 H33           -1.2272     2.9773     0.0241 H       
  34 H34           -2.3799     0.3247    -0.5190 H       
  35 H35           -1.0786    -2.2837     0.8850 H       
  36 H36           -1.0948    -2.2706    -0.8948 H       
  37 H37           -0.4693    -4.6699    -0.9182 H       
  38 H38           -0.4531    -4.6831     0.8616 H       
  39 H39           -2.5545    -5.4055    -0.0147 H       
  40 H40           -2.6758     0.0339     1.8049 H       
  41 H41           -2.5821     1.7910     2.1308 H       
  42 H42           -3.4013     3.1802    -0.4611 H       
  43 H43           -3.7621     1.8761    -1.6322 H       
  44 H44           -8.2101     1.6701     0.5963 H       
  45 H45           -7.5490     0.5488     2.6880 H       
  46 H46           -5.1676     0.1966     3.1936 H       
  47 H47           -6.4881     2.4365    -0.9842 H       
@<TRIPOS>BOND
   1    1    2 ar
   2    1    6 ar
   3    1   11 1
   4    2    3 ar
   5    3    4 ar
   6    3   13 1
   7    4    5 ar
   8    5    6 ar
   9    5    8 1
  10    6    7 1
  11    7   10 1
  12    7   25 1
  13    7   26 1
  14    8    9 1
  15    8   27 1
  16    8   28 1
  17    9   10 1
  18    9   29 1
  19    9   30 1
  20   10   31 1
  21   10   32 1
  22   11   12 1
  23   11   33 1
  24   12   20 1
  25   12   19 1
  26   12   34 1
  27   13   14 1
  28   14   15 1
  29   14   35 1
  30   14   36 1
  31   15   16 1
  32   15   37 1
  33   15   38 1
  34   16   39 1
  35   17   20 1
  36   17   24 ar
  37   17   18 ar
  38   18   19 1
  39   18   23 ar
  40   19   40 1
  41   19   41 1
  42   20   42 1
  43   20   43 1
  44   21   22 ar
  45   21   24 ar
  46   21   44 1
  47   22   23 ar
  48   22   45 1
  49   23   46 1
  50   24   47 1

#	End of record

