#	Name: ASD05060099
#	Creating user name:	WinNT
#	Creation time:	15. 06. 2019 20:56

#	Modifying user name:	WinNT
#	Modification time:	15. 06. 2019 20:56

#	Program:	/corina/corina34_cracker 3.40 0067  02.08.2006

@<TRIPOS>MOLECULE
ASD05060099
  20   21    0    0    0
SMALL
NO_CHARGES


@<TRIPOS>ATOM
   1 S1            -0.0211     1.7014     0.0114 S.3     
   2 C2             0.0021    -0.0041     0.0020 C.2     
   3 C3             1.2542    -0.4699    -0.0124 C.2     
   4 C4             2.2389     0.4978    -0.0166 C.2     
   5 C5             1.7354     1.7768    -0.0050 C.2     
   6 C6             2.5071     2.9639    -0.0060 C.2     
   7 O7             3.7223     2.8997    -0.0184 O.2     
   8 O8             1.8950     4.1667     0.0068 O.3     
   9 N9             3.6067     0.2069    -0.0308 N.pl3   
  10 C10            4.3767     0.0471    -1.1497 C.2     
  11 C11            5.6390    -0.2227    -0.7572 C.2     
  12 C12            5.6519    -0.2305     0.6533 C.2     
  13 C13            4.3984     0.0407     1.0718 C.2     
  14 Cl14           3.8793     0.1551     2.7244 Cl      
  15 Cl15           3.8251     0.1694    -2.7911 Cl      
  16 H16           -0.8806    -0.6264     0.0074 H       
  17 H17            1.4796    -1.5261    -0.0199 H       
  18 H18            2.5039     4.9179     0.0050 H       
  19 H19            6.4849    -0.4006    -1.4047 H       
  20 H20            6.5096    -0.4152     1.2831 H       
@<TRIPOS>BOND
   1    1    2 1
   2    1    5 1
   3    2    3 2
   4    2   16 1
   5    3    4 1
   6    3   17 1
   7    4    5 2
   8    4    9 1
   9    5    6 1
  10    6    7 2
  11    6    8 1
  12    8   18 1
  13    9   10 1
  14    9   13 1
  15   10   11 2
  16   10   15 1
  17   11   12 1
  18   11   19 1
  19   12   13 2
  20   12   20 1
  21   13   14 1

#	End of record

