#	Name: ASD03090680
#	Creating user name:	WinNT
#	Creation time:	15. 06. 2019 20:29

#	Modifying user name:	WinNT
#	Modification time:	15. 06. 2019 20:29

#	Program:	/corina/corina34_cracker 3.40 0067  02.08.2006

@<TRIPOS>MOLECULE
ASD03090680
  30   31    0    0    0
SMALL
NO_CHARGES


@<TRIPOS>ATOM
   1 N1            -0.0162     1.3436     0.0094 N.am    
   2 C2            -0.2196     0.1216    -0.5215 C.2     
   3 O3             0.6632    -0.4186    -1.1598 O.2     
   4 N4            -1.4015    -0.5016    -0.3451 N.am    
   5 S5            -3.0503    -2.6824    -0.7593 S.3     
   6 C6            -1.6114    -1.7625    -0.8929 C.2     
   7 N7            -0.7489    -2.4379    -1.5909 N.2     
   8 N8            -1.1001    -3.5732    -2.0169 N.2     
   9 C9            -2.2984    -3.9604    -1.7148 C.2     
  10 C10           -2.9356    -5.2681    -2.1081 C.3     
  11 F11           -1.9934    -6.0673    -2.7644 F       
  12 F12           -3.3899    -5.9289    -0.9617 F       
  13 F13           -4.0152    -5.0223    -2.9632 F       
  14 C14            1.2474     1.9434    -0.0765 C.ar    
  15 C15            1.3540     3.3193    -0.2301 C.ar    
  16 C16            2.6001     3.9100    -0.3142 C.ar    
  17 C17            3.7451     3.1277    -0.2453 C.ar    
  18 C18            3.6384     1.7538    -0.0920 C.ar    
  19 C19            2.3929     1.1629    -0.0024 C.ar    
  20 O20            4.9717     3.7091    -0.3286 O.3     
  21 C21            6.1064     2.8440    -0.2503 C.3     
  22 Cl22           2.7343     5.6300    -0.5068 Cl      
  23 H23           -0.7455     1.8095     0.4476 H       
  24 H24           -2.1058    -0.0707     0.1641 H       
  25 H25            0.4631     3.9275    -0.2840 H       
  26 H26            4.5294     1.1458    -0.0387 H       
  27 H27            2.3103     0.0932     0.1211 H       
  28 H28            6.0964     2.3170     0.7037 H       
  29 H29            6.0691     2.1211    -1.0652 H       
  30 H30            7.0194     3.4342    -0.3297 H       
@<TRIPOS>BOND
   1    1    2 am
   2    1   14 1
   3    1   23 1
   4    2    3 2
   5    2    4 am
   6    4    6 1
   7    4   24 1
   8    5    6 1
   9    5    9 1
  10    6    7 2
  11    7    8 1
  12    8    9 2
  13    9   10 1
  14   10   11 1
  15   10   12 1
  16   10   13 1
  17   14   15 ar
  18   14   19 ar
  19   15   16 ar
  20   15   25 1
  21   16   17 ar
  22   16   22 1
  23   17   18 ar
  24   17   20 1
  25   18   19 ar
  26   18   26 1
  27   19   27 1
  28   20   21 1
  29   21   28 1
  30   21   29 1
  31   21   30 1

#	End of record

