#	Name: ASD03331707
#	Creating user name:	WinNT
#	Creation time:	15. 06. 2019 20:39

#	Modifying user name:	WinNT
#	Modification time:	15. 06. 2019 20:39

#	Program:	/corina/corina34_cracker 3.40 0067  02.08.2006

@<TRIPOS>MOLECULE
ASD03331707
  45   47    0    0    0
SMALL
NO_CHARGES


@<TRIPOS>ATOM
   1 C1             1.1662    -0.4244    -1.2316 C.ar    
   2 C2             0.6547     0.0105    -2.4417 C.ar    
   3 C3             1.1651     1.1476    -3.0428 C.ar    
   4 C4             2.1868     1.8516    -2.4360 C.ar    
   5 C5             2.7014     1.4176    -1.2215 C.ar    
   6 C6             2.1875     0.2762    -0.6205 C.ar    
   7 N7             3.7372     2.1291    -0.6045 N.am    
   8 C8             3.7767     3.4734    -0.6919 C.2     
   9 N9             4.7205     4.1648    -0.0228 N.am    
  10 O10            2.9607     4.0625    -1.3743 O.2     
  11 C11            4.8222     5.5507    -0.1889 C.ar    
  12 C12            3.7723     7.6843    -0.5304 C.ar    
  13 C13            3.6759     6.3153    -0.3660 C.ar    
  14 C14            6.0670     6.1619    -0.1712 C.ar    
  15 C15            6.1632     7.5410    -0.3369 C.ar    
  16 C16            5.0079     8.2996    -0.5197 C.ar    
  17 C17            7.4915     8.2014    -0.3185 C.ar    
  18 N18            8.5867     7.4703    -0.1489 N.ar    
  19 C19            7.5777     9.5800    -0.4849 C.ar    
  20 C20            8.8239    10.1884    -0.4668 C.ar    
  21 C21            9.9444     9.3982    -0.2826 C.ar    
  22 C22            9.7901     8.0220    -0.1270 C.ar    
  23 N23           10.9071     7.2229     0.0525 N.pl3   
  24 Cl24          -0.6290    -0.8724    -3.2073 Cl      
  25 O25           10.7794     6.0194     0.1892 O.3     
  26 C26           11.8980     5.3053     0.3585 C.2     
  27 C27           11.8184     3.8107     0.5341 C.3     
  28 O28           12.9759     5.8607     0.3707 O.2     
  29 H29            0.7633    -1.3099    -0.7626 H       
  30 H30            0.7645     1.4848    -3.9873 H       
  31 H31            2.5852     2.7387    -2.9058 H       
  32 H32            2.5861    -0.0635     0.3241 H       
  33 H33            4.4266     1.6545    -0.1142 H       
  34 H34            5.3292     3.7019     0.5738 H       
  35 H35            2.8782     8.2744    -0.6677 H       
  36 H36            2.7068     5.8387    -0.3755 H       
  37 H37            6.9590     5.5699    -0.0289 H       
  38 H38            5.0794     9.3695    -0.6488 H       
  39 H39            6.6841    10.1697    -0.6271 H       
  40 H40            8.9176    11.2568    -0.5940 H       
  41 H41           10.9286     9.8425    -0.2637 H       
  42 H42           11.7912     7.6219     0.0694 H       
  43 H43           11.8743     3.3268    -0.4410 H       
  44 H44           12.6480     3.4732     1.1554 H       
  45 H45           10.8753     3.5511     1.0150 H       
@<TRIPOS>BOND
   1    1    2 ar
   2    1    6 ar
   3    1   29 1
   4    2    3 ar
   5    2   24 1
   6    3    4 ar
   7    3   30 1
   8    4    5 ar
   9    4   31 1
  10    5    6 ar
  11    5    7 1
  12    6   32 1
  13    7    8 am
  14    7   33 1
  15    8    9 am
  16    8   10 2
  17    9   11 1
  18    9   34 1
  19   11   14 ar
  20   11   13 ar
  21   12   13 ar
  22   12   16 ar
  23   12   35 1
  24   13   36 1
  25   14   15 ar
  26   14   37 1
  27   15   16 ar
  28   15   17 1
  29   16   38 1
  30   17   19 ar
  31   17   18 ar
  32   18   22 ar
  33   19   20 ar
  34   19   39 1
  35   20   21 ar
  36   20   40 1
  37   21   22 ar
  38   21   41 1
  39   22   23 1
  40   23   25 1
  41   23   42 1
  42   25   26 1
  43   26   27 1
  44   26   28 2
  45   27   43 1
  46   27   44 1
  47   27   45 1

#	End of record

