#	Name: ASD01913382
#	Creating user name:	WinNT
#	Creation time:	15. 06. 2019 20:01

#	Modifying user name:	WinNT
#	Modification time:	15. 06. 2019 20:01

#	Program:	/corina/corina34_cracker 3.40 0067  02.08.2006

@<TRIPOS>MOLECULE
ASD01913382
  37   39    0    0    0
SMALL
NO_CHARGES


@<TRIPOS>ATOM
   1 C1            -1.3812     1.4156    -1.0996 C.ar    
   2 C2            -1.3300     0.0249    -1.1582 C.ar    
   3 C3            -1.4176    -0.6011    -2.3956 C.ar    
   4 N4            -1.5467     0.1072    -3.4993 N.ar    
   5 C5            -1.5982     1.4249    -3.4774 C.ar    
   6 C6            -1.5180     2.1195    -2.2849 C.ar    
   7 N7            -1.1923    -0.7295     0.0100 N.pl3   
   8 C8            -1.2543    -2.1243    -0.0476 C.ar    
   9 C9            -0.0946    -2.8636    -0.2468 C.ar    
  10 C10           -0.1511    -4.2457    -0.3046 C.ar    
  11 C11           -1.3616    -4.8982    -0.1645 C.ar    
  12 C12           -2.5313    -4.1628     0.0364 C.ar    
  13 C13           -2.4726    -2.7708     0.0997 C.ar    
  14 C14           -3.8272    -4.8578     0.1866 C.2     
  15 N15           -3.8809    -6.2033     0.1297 N.am    
  16 C16           -5.0977    -6.8558     0.2707 C.2     
  17 O17           -4.8445    -4.2158     0.3614 O.2     
  18 S18           -6.6495    -6.0648     0.5277 S.3     
  19 C19           -7.4488    -7.6344     0.5654 C.2     
  20 C20           -6.5111    -8.5908     0.3872 C.2     
  21 N21           -5.2657    -8.1386     0.2278 N.2     
  22 C22           -6.8308    -9.9865     0.3659 C.1     
  23 F23            0.9799    -4.9586    -0.4989 F       
  24 C24           -0.9828    -0.0581     1.2951 C.3     
  25 N25           -7.0845   -11.0937     0.3491 N.1     
  26 H26           -1.3201     1.9322    -0.1532 H       
  27 H27           -1.3791    -1.6789    -2.4534 H       
  28 H28           -1.7046     1.9690    -4.4043 H       
  29 H29           -1.5614     3.1986    -2.2774 H       
  30 H30            0.8535    -2.3584    -0.3572 H       
  31 H31           -1.4026    -5.9764    -0.2107 H       
  32 H32           -3.3745    -2.1974     0.2553 H       
  33 H33           -3.0691    -6.7156    -0.0098 H       
  34 H34           -8.5061    -7.8032     0.7070 H       
  35 H35           -1.9474     0.1477     1.7590 H       
  36 H36           -0.3947    -0.7014     1.9496 H       
  37 H37           -0.4504     0.8791     1.1328 H       
@<TRIPOS>BOND
   1    1    2 ar
   2    1    6 ar
   3    1   26 1
   4    2    3 ar
   5    2    7 1
   6    3    4 ar
   7    3   27 1
   8    4    5 ar
   9    5    6 ar
  10    5   28 1
  11    6   29 1
  12    7    8 1
  13    7   24 1
  14    8    9 ar
  15    8   13 ar
  16    9   10 ar
  17    9   30 1
  18   10   11 ar
  19   10   23 1
  20   11   12 ar
  21   11   31 1
  22   12   13 ar
  23   12   14 1
  24   13   32 1
  25   14   15 am
  26   14   17 2
  27   15   16 1
  28   15   33 1
  29   16   18 1
  30   16   21 2
  31   18   19 1
  32   19   20 2
  33   19   34 1
  34   20   21 1
  35   20   22 1
  36   22   25 3
  37   24   35 1
  38   24   36 1
  39   24   37 1

#	End of record

