#	Name: ASD05143026
#	Creating user name:	WinNT
#	Creation time:	15. 06. 2019 20:57

#	Modifying user name:	WinNT
#	Modification time:	15. 06. 2019 20:57

#	Program:	/corina/corina34_cracker 3.40 0067  02.08.2006

@<TRIPOS>MOLECULE
ASD05143026
 148  151    0    0    0
SMALL
NO_CHARGES


@<TRIPOS>ATOM
   1 C1            -2.1188     5.3774     7.5184 C.2     
   2 C2            -1.6351     4.6369     8.7385 C.3     
   3 N3            -1.2298     5.9151     6.6600 N.am    
   4 O4            -3.3081     5.4852     7.3064 O.2     
   5 C5            -1.7001     6.6350     5.4739 C.3     
   6 C6            -2.5323     5.6927     4.6020 C.3     
   7 C7            -2.5483     7.8054     5.9001 C.2     
   8 C8            -1.6397     4.5710     4.0672 C.3     
   9 C9            -2.4720     3.6287     3.1953 C.3     
  10 N10           -1.6173     2.5547     2.6833 N.pl3   
  11 C11           -2.1488     1.5815     1.8705 C.2     
  12 N12           -3.4825     1.6163     1.5382 N.pl3   
  13 N13           -1.3884     0.6260     1.4149 N.2     
  14 O14           -3.0425     7.8248     7.0075 O.2     
  15 N15           -2.7577     8.8307     5.0507 N.am    
  16 C16           -3.5823     9.9685     5.4651 C.3     
  17 C17           -2.6798    11.1589     5.7956 C.3     
  18 C18           -1.5249    10.6931     6.6842 C.3     
  19 C19           -0.3826    10.2249     5.8200 C.2     
  20 O20           -0.5841     9.4962     4.8717 O.2     
  21 N21            0.8841    10.6368     6.1242 N.am    
  22 C22            1.9486    10.1269     5.2301 C.3     
  23 C23            2.1004    11.0893     4.0505 C.3     
  24 C24            2.7654    10.3607     2.8809 C.3     
  25 C25            3.7248    11.3134     2.1649 C.3     
  26 N26            3.6752    11.0386     0.7148 N.am    
  27 C27            5.1267    11.0943     2.6727 C.2     
  28 N28            5.5127    11.6409     3.8427 N.am    
  29 O29            5.9075    10.4262     2.0286 O.2     
  30 C30            2.8501    11.8280    -0.0258 C.2     
  31 O31            2.2055    12.7089     0.5028 O.2     
  32 C32            2.7479    11.5938    -1.5110 C.3     
  33 N33            1.5339    12.2774    -2.0133 N.am    
  34 C34            3.9846    12.1651    -2.2075 C.3     
  35 C35            0.4812    11.4583    -2.3092 C.2     
  36 O36            0.5726    10.2577    -2.1638 O.2     
  37 C37           -0.7959    12.0750    -2.8191 C.3     
  38 N38           -1.9231    11.1814    -2.4862 N.am    
  39 C39           -1.0081    13.4371    -2.1553 C.3     
  40 C40           -3.0285    11.7688    -1.9506 C.2     
  41 O41           -3.0582    12.9664    -1.7614 O.2     
  42 C42           -4.2147    10.9093    -1.5967 C.3     
  43 C43            3.9385    11.8220    -3.6742 C.2     
  44 C44            3.2417    12.5708    -4.7228 C.ar    
  45 C45            3.4812    11.8752    -5.9218 C.ar    
  46 N46            4.2659    10.7875    -5.6105 N.pl3   
  47 C47            4.5330    10.7754    -4.2685 C.2     
  48 C48            2.4649    13.7311    -4.7337 C.ar    
  49 C49            1.9407    14.1853    -5.9108 C.ar    
  50 C50            2.1738    13.5021    -7.0967 C.ar    
  51 C51            2.9379    12.3560    -7.1088 C.ar    
  52 N52           -4.8021    11.4087    -0.3325 N.am    
  53 C53           -3.7618     9.4593    -1.4147 C.3     
  54 C54           -4.9606     8.5900    -1.1349 C.ar    
  55 C55           -5.9885     8.5132    -2.0556 C.ar    
  56 C56           -7.0884     7.7157    -1.7989 C.ar    
  57 C57           -7.1597     6.9950    -0.6217 C.ar    
  58 C58           -6.1311     7.0711     0.2989 C.ar    
  59 C59           -5.0296     7.8649     0.0403 C.ar    
  60 C60           -4.5190    10.3442     4.3458 C.2     
  61 N61           -4.0005    10.8334     3.1861 N.am    
  62 O62           -5.7175    10.2121     4.4762 O.2     
  63 C63           -4.9668    11.1844     2.1262 C.3     
  64 C64           -5.1885    12.6982     2.1153 C.3     
  65 C65           -4.4103    10.7460     0.7961 C.2     
  66 C66           -5.8535    13.1257     3.4252 C.3     
  67 N67           -6.0663    14.5792     3.4148 N.3     
  68 O68           -3.6288     9.8210     0.7288 O.2     
  69 C69           -1.0200    13.2671    -0.6348 C.3     
  70 C70           -1.3788    14.6002     0.0246 C.3     
  71 N71           -1.3902    14.4375     1.4805 N.pl3   
  72 C72           -1.6885    15.5083     2.2896 C.2     
  73 N73           -1.6992    15.3555     3.6559 N.pl3   
  74 N74           -1.9612    16.6682     1.7614 N.2     
  75 C75           -8.2096     7.6327    -2.8024 C.3     
  76 F76           -7.9560     6.5898    -3.6998 F       
  77 F77           -9.4154     7.3911    -2.1354 F       
  78 F78           -8.2983     8.8401    -3.5035 F       
  79 H79           -1.5303     5.3347     9.5693 H       
  80 H80           -2.3553     3.8626     9.0029 H       
  81 H81           -0.6697     4.1777     8.5258 H       
  82 H82           -0.2786     5.8255     6.8274 H       
  83 H83           -0.8435     6.9955     4.9042 H       
  84 H84           -3.3379     5.2632     5.1975 H       
  85 H85           -2.9556     6.2499     3.7662 H       
  86 H86           -0.8341     5.0005     3.4716 H       
  87 H87           -1.2164     4.0138     4.9029 H       
  88 H88           -3.2776     3.1993     3.7909 H       
  89 H89           -2.8953     4.1859     2.3596 H       
  90 H90           -0.6764     2.5302     2.9177 H       
  91 H91           -4.0484     2.3274     1.8772 H       
  92 H92           -3.8575     0.9297     0.9647 H       
  93 H93           -1.7634    -0.0606     0.8414 H       
  94 H94           -2.3624     8.8153     4.1651 H       
  95 H95           -4.1612     9.6955     6.3473 H       
  96 H96           -2.2810    11.5797     4.8725 H       
  97 H97           -3.2586    11.9188     6.3207 H       
  98 H98           -1.1914    11.5208     7.3101 H       
  99 H99           -1.8618     9.8720     7.3171 H       
 100 H100           1.0729    11.2229     6.8737 H       
 101 H101           2.8892    10.0684     5.7778 H       
 102 H102           1.6747     9.1380     4.8624 H       
 103 H103           1.1173    11.4468     3.7443 H       
 104 H104           2.7181    11.9361     4.3496 H       
 105 H105           3.3202     9.5010     3.2567 H       
 106 H106           2.0007    10.0221     2.1819 H       
 107 H107           3.4234    12.3441     2.3519 H       
 108 H108           4.2031    10.3320     0.3111 H       
 109 H109           4.8882    12.1752     4.3578 H       
 110 H110           6.4150    11.4999     4.1695 H       
 111 H111           2.6742    10.5245    -1.7088 H       
 112 H112           1.4894    13.2399    -2.1249 H       
 113 H113           4.0010    13.2484    -2.0881 H       
 114 H114           4.8827    11.7368    -1.7623 H       
 115 H115          -0.7352    12.1991    -3.9003 H       
 116 H116          -1.8783    10.2249    -2.6408 H       
 117 H117          -0.1988    14.1098    -2.4393 H       
 118 H118          -1.9601    13.8559    -2.4815 H       
 119 H119          -4.9574    10.9657    -2.3924 H       
 120 H120           4.5850    10.1299    -6.2481 H       
 121 H121           5.1275    10.0299    -3.7614 H       
 122 H122           2.2788    14.2673    -3.8149 H       
 123 H123           1.3400    15.0827    -5.9187 H       
 124 H124           1.7524    13.8734    -8.0192 H       
 125 H125           3.1137    11.8319    -8.0366 H       
 126 H126          -5.4217    12.1546    -0.3074 H       
 127 H127          -3.2683     9.1159    -2.3239 H       
 128 H128          -3.0656     9.3983    -0.5782 H       
 129 H129          -5.9328     9.0764    -2.9755 H       
 130 H130          -8.0192     6.3726    -0.4209 H       
 131 H131          -6.1870     6.5082     1.2189 H       
 132 H132          -4.2260     7.9244     0.7594 H       
 133 H133          -3.0450    10.9460     3.0624 H       
 134 H134          -5.9138    10.6780     2.3129 H       
 135 H135          -4.2290    13.2052     2.0125 H       
 136 H136          -5.8321    12.9652     1.2771 H       
 137 H137          -6.8129    12.6188     3.5280 H       
 138 H138          -5.2099    12.8588     4.2634 H       
 139 H139          -6.6068    14.8597     2.6103 H       
 140 H140          -6.5047    14.8866     4.2700 H       
 141 H141          -1.7590    12.5148    -0.3591 H       
 142 H142          -0.0338    12.9485    -0.2971 H       
 143 H143          -0.6398    15.3525    -0.2511 H       
 144 H144          -2.3650    14.9188    -0.3131 H       
 145 H145          -1.1873    13.5742     1.8736 H       
 146 H146          -1.4963    14.4923     4.0491 H       
 147 H147          -1.9096    16.1110     4.2268 H       
 148 H148          -2.1716    17.4237     2.3323 H       
@<TRIPOS>BOND
   1    1    2 1
   2    1    3 am
   3    1    4 2
   4    2   79 1
   5    2   80 1
   6    2   81 1
   7    3    5 1
   8    3   82 1
   9    5    6 1
  10    5    7 1
  11    5   83 1
  12    6    8 1
  13    6   84 1
  14    6   85 1
  15    7   14 2
  16    7   15 am
  17    8    9 1
  18    8   86 1
  19    8   87 1
  20    9   10 1
  21    9   88 1
  22    9   89 1
  23   10   11 1
  24   10   90 1
  25   11   12 1
  26   11   13 2
  27   12   91 1
  28   12   92 1
  29   13   93 1
  30   15   16 1
  31   15   94 1
  32   16   17 1
  33   16   60 1
  34   16   95 1
  35   17   18 1
  36   17   96 1
  37   17   97 1
  38   18   19 1
  39   18   98 1
  40   18   99 1
  41   19   20 2
  42   19   21 am
  43   21   22 1
  44   21  100 1
  45   22   23 1
  46   22  101 1
  47   22  102 1
  48   23   24 1
  49   23  103 1
  50   23  104 1
  51   24   25 1
  52   24  105 1
  53   24  106 1
  54   25   26 1
  55   25   27 1
  56   25  107 1
  57   26   30 am
  58   26  108 1
  59   27   28 am
  60   27   29 2
  61   28  109 1
  62   28  110 1
  63   30   31 2
  64   30   32 1
  65   32   33 1
  66   32   34 1
  67   32  111 1
  68   33   35 am
  69   33  112 1
  70   34   43 1
  71   34  113 1
  72   34  114 1
  73   35   36 2
  74   35   37 1
  75   37   38 1
  76   37   39 1
  77   37  115 1
  78   38   40 am
  79   38  116 1
  80   39   69 1
  81   39  117 1
  82   39  118 1
  83   40   41 2
  84   40   42 1
  85   42   52 1
  86   42   53 1
  87   42  119 1
  88   43   44 1
  89   43   47 2
  90   44   45 ar
  91   44   48 ar
  92   45   46 1
  93   45   51 ar
  94   46   47 1
  95   46  120 1
  96   47  121 1
  97   48   49 ar
  98   48  122 1
  99   49   50 ar
 100   49  123 1
 101   50   51 ar
 102   50  124 1
 103   51  125 1
 104   52   65 am
 105   52  126 1
 106   53   54 1
 107   53  127 1
 108   53  128 1
 109   54   55 ar
 110   54   59 ar
 111   55   56 ar
 112   55  129 1
 113   56   57 ar
 114   56   75 1
 115   57   58 ar
 116   57  130 1
 117   58   59 ar
 118   58  131 1
 119   59  132 1
 120   60   61 am
 121   60   62 2
 122   61   63 1
 123   61  133 1
 124   63   64 1
 125   63   65 1
 126   63  134 1
 127   64   66 1
 128   64  135 1
 129   64  136 1
 130   65   68 2
 131   66   67 1
 132   66  137 1
 133   66  138 1
 134   67  139 1
 135   67  140 1
 136   69   70 1
 137   69  141 1
 138   69  142 1
 139   70   71 1
 140   70  143 1
 141   70  144 1
 142   71   72 1
 143   71  145 1
 144   72   73 1
 145   72   74 2
 146   73  146 1
 147   73  147 1
 148   74  148 1
 149   75   76 1
 150   75   77 1
 151   75   78 1

#	End of record

