#	Name: ASD02500830
#	Creating user name:	WinNT
#	Creation time:	15. 06. 2019 20:23

#	Modifying user name:	WinNT
#	Modification time:	15. 06. 2019 20:23

#	Program:	/corina/corina34_cracker 3.40 0067  02.08.2006

@<TRIPOS>MOLECULE
ASD02500830
  30   31    0    0    0
SMALL
NO_CHARGES


@<TRIPOS>ATOM
   1 C1            -0.0169     1.3975     0.0097 C.ar    
   2 C2             0.0021    -0.0041     0.0020 C.ar    
   3 C3            -1.1918    -0.7102     0.0096 C.ar    
   4 C4            -2.3958    -0.0363     0.0242 C.ar    
   5 C5            -2.4225     1.3543     0.0319 C.ar    
   6 C6            -1.2402     2.0725     0.0309 C.ar    
   7 C7             1.2473     2.1556     0.0017 C.2     
   8 O8             1.2251     3.5029     0.0092 O.3     
   9 O9             2.3094     1.5655    -0.0116 O.2     
  10 O10            1.1852    -0.6683    -0.0133 O.3     
  11 N11           -3.6524     2.0307     0.0468 N.pl3   
  12 C12           -4.5666     1.9981     1.0603 C.2     
  13 C13           -5.6148     2.7699     0.7073 C.2     
  14 C14           -5.3394     3.2986    -0.5697 C.2     
  15 C15           -4.1305     2.8351    -0.9474 C.2     
  16 C16           -4.4286     1.2314     2.3504 C.3     
  17 C17           -3.4322     3.1442    -2.2467 C.3     
  18 H18           -1.1790    -1.7901     0.0037 H       
  19 H19           -3.3221    -0.5915     0.0293 H       
  20 H20           -1.2627     3.1522     0.0369 H       
  21 H21            2.0793     3.9560     0.0035 H       
  22 H22            1.5369    -0.8655     0.8657 H       
  23 H23           -6.5028     2.9493     1.2952 H       
  24 H24           -5.9778     3.9574    -1.1396 H       
  25 H25           -3.9422     1.8600     3.0963 H       
  26 H26           -5.4166     0.9414     2.7081 H       
  27 H27           -3.8273     0.3384     2.1799 H       
  28 H28           -2.8155     4.0347    -2.1249 H       
  29 H29           -2.8015     2.3014    -2.5296 H       
  30 H30           -4.1745     3.3200    -3.0252 H       
@<TRIPOS>BOND
   1    1    2 ar
   2    1    7 1
   3    1    6 ar
   4    2    3 ar
   5    2   10 1
   6    3    4 ar
   7    3   18 1
   8    4    5 ar
   9    4   19 1
  10    5    6 ar
  11    5   11 1
  12    6   20 1
  13    7    8 1
  14    7    9 2
  15    8   21 1
  16   10   22 1
  17   11   12 1
  18   11   15 1
  19   12   13 2
  20   12   16 1
  21   13   14 1
  22   13   23 1
  23   14   15 2
  24   14   24 1
  25   15   17 1
  26   16   25 1
  27   16   26 1
  28   16   27 1
  29   17   28 1
  30   17   29 1
  31   17   30 1

#	End of record

