#	Name: ASD01814737
#	Creating user name:	WinNT
#	Creation time:	15. 06. 2019 19:32

#	Modifying user name:	WinNT
#	Modification time:	15. 06. 2019 19:32

#	Program:	/corina/corina34_cracker 3.40 0067  02.08.2006

@<TRIPOS>MOLECULE
ASD01814737
  53   56    0    0    0
SMALL
NO_CHARGES


@<TRIPOS>ATOM
   1 C1            -0.0178     1.4648     0.0101 C.3     
   2 N2             0.0021    -0.0041     0.0020 N.3     
   3 C3             0.6508    -0.5145    -1.2110 C.3     
   4 C4             0.7454    -2.0425    -1.1118 C.3     
   5 O5             1.5874    -2.3589     0.0022 O.3     
   6 C6             1.3657    -1.6643     1.1482 C.ar    
   7 C7             1.9264    -2.1258     2.3326 C.ar    
   8 C8             2.7633    -3.3789     2.3496 C.3     
   9 C9             4.1853    -3.0382     1.9847 C.ar    
  10 C10            4.5830    -3.0608     0.6609 C.ar    
  11 C11            5.8867    -2.7486     0.3252 C.ar    
  12 C12            6.7945    -2.4126     1.3152 C.ar    
  13 F13            8.0691    -2.1067     0.9880 F       
  14 C14            6.3949    -2.3898     2.6406 C.ar    
  15 C15            5.0894    -2.6977     2.9736 C.ar    
  16 C16            1.7010    -1.4105     3.4979 C.ar    
  17 C17            0.9232    -0.2574     3.4434 C.ar    
  18 N18            0.3996     0.1559     2.2946 N.ar    
  19 C19            0.5904    -0.5012     1.1611 C.ar    
  20 C20            0.6765     0.5166     4.6790 C.2     
  21 O21            1.1518     0.1447     5.7342 O.2     
  22 N22           -0.0754     1.6343     4.6353 N.am    
  23 C23           -0.3198     2.4010     5.8595 C.3     
  24 H24            0.5634     2.3612     6.4971 H       
  25 C25           -1.5179     1.8064     6.6059 C.3     
  26 C26           -1.8146     2.6605     7.8413 C.3     
  27 O27           -2.0624     4.0089     7.4383 O.3     
  28 C28           -0.9595     4.6323     6.7771 C.3     
  29 C29           -0.6262     3.8579     5.4990 C.3     
  30 H30           -1.4784     3.8937     4.8203 H       
  31 O31            0.5139     4.4435     4.8673 O.3     
  32 H32            1.0047     1.8421     0.0024 H       
  33 H33           -0.5450     1.8259    -0.8730 H       
  34 H34           -0.5280     1.8163     0.9069 H       
  35 H35            0.0596    -0.2406    -2.0848 H       
  36 H36            1.6516    -0.0909    -1.2963 H       
  37 H37           -0.2475    -2.4642    -0.9552 H       
  38 H38            1.1780    -2.4456    -2.0274 H       
  39 H39            2.7394    -3.8182     3.3468 H       
  40 H40            2.3642    -4.0922     1.6285 H       
  41 H41            3.8748    -3.3229    -0.1111 H       
  42 H42            6.1974    -2.7670    -0.7090 H       
  43 H43            7.1022    -2.1281     3.4137 H       
  44 H44            4.7764    -2.6760     4.0070 H       
  45 H45            2.1230    -1.7428     4.4349 H       
  46 H46           -0.4547     1.9310     3.7933 H       
  47 H47           -2.3886     1.7995     5.9503 H       
  48 H48           -1.2854     0.7873     6.9149 H       
  49 H49           -2.6929     2.2669     8.3530 H       
  50 H50           -0.9586     2.6341     8.5156 H       
  51 H51           -1.2217     5.6591     6.5220 H       
  52 H52           -0.0923     4.6317     7.4374 H       
  53 H53            0.3903     5.3678     4.6113 H       
@<TRIPOS>BOND
   1    1    2 1
   2    1   32 1
   3    1   33 1
   4    1   34 1
   5    2   19 1
   6    2    3 1
   7    3    4 1
   8    3   35 1
   9    3   36 1
  10    4    5 1
  11    4   37 1
  12    4   38 1
  13    5    6 1
  14    6   19 ar
  15    6    7 ar
  16    7    8 1
  17    7   16 ar
  18    8    9 1
  19    8   39 1
  20    8   40 1
  21    9   15 ar
  22    9   10 ar
  23   10   11 ar
  24   10   41 1
  25   11   12 ar
  26   11   42 1
  27   12   13 1
  28   12   14 ar
  29   14   15 ar
  30   14   43 1
  31   15   44 1
  32   16   17 ar
  33   16   45 1
  34   17   18 ar
  35   17   20 1
  36   18   19 ar
  37   20   21 2
  38   20   22 am
  39   22   23 1
  40   22   46 1
  41   23   24 1
  42   23   29 1
  43   23   25 1
  44   25   26 1
  45   25   47 1
  46   25   48 1
  47   26   27 1
  48   26   49 1
  49   26   50 1
  50   27   28 1
  51   28   29 1
  52   28   51 1
  53   28   52 1
  54   29   30 1
  55   29   31 1
  56   31   53 1

#	End of record

