#	Name: ASD01811412
#	Creating user name:	WinNT
#	Creation time:	15. 06. 2019 19:26

#	Modifying user name:	WinNT
#	Modification time:	15. 06. 2019 19:26

#	Program:	/corina/corina34_cracker 3.40 0067  02.08.2006

@<TRIPOS>MOLECULE
ASD01811412
  70   74    0    0    0
SMALL
NO_CHARGES


@<TRIPOS>ATOM
   1 C1            -0.1950     1.6864    -1.1761 C.2     
   2 C2            -0.1605     0.2352    -1.4386 C.ar    
   3 C3             0.8603    -0.3221    -2.2244 C.ar    
   4 C4             0.8532    -1.6732    -2.4415 C.ar    
   5 C5            -0.1589    -2.4507    -1.8809 C.ar    
   6 N6            -1.1119    -1.8991    -1.1421 N.ar    
   7 C7            -1.1392    -0.6043    -0.9043 C.ar    
   8 O8             0.6650     2.4091    -1.6417 O.2     
   9 N9            -1.1828     2.2120    -0.4248 N.am    
  10 N10           -0.1695    -3.8180    -2.0988 N.pl3   
  11 C11            0.8782    -4.4380    -2.9138 C.3     
  12 C12            0.6346    -5.9462    -2.9965 C.3     
  13 O13           -0.5858    -6.1939    -3.6974 O.3     
  14 C14           -0.9085    -7.5796    -3.8309 C.3     
  15 C15           -1.1611     3.5705    -0.0920 C.ar    
  16 C16           -2.3537     4.2704     0.0502 C.ar    
  17 C17           -2.3376     5.6127     0.3789 C.ar    
  18 C18           -1.1373     6.2674     0.5681 C.ar    
  19 C19            0.0657     5.5735     0.4281 C.ar    
  20 C20            0.0494     4.2174     0.1015 C.ar    
  21 C21           -3.6685     3.5632    -0.1551 C.3     
  22 C22            1.3530     6.2724     0.6302 C.2     
  23 O23            2.2226     5.7605     1.3078 O.2     
  24 C24            2.2922     9.3127    -1.9523 C.3     
  25 O25            2.0424    10.5295    -1.2311 O.3     
  26 C26            2.9538    11.4894    -1.7981 C.3     
  27 C27            3.1871    11.0490    -3.2249 C.ar    
  28 C28            3.6890    11.6997    -4.3296 C.ar    
  29 C29            3.7907    11.0234    -5.5475 C.ar    
  30 C30            3.3822     9.6908    -5.6353 C.ar    
  31 C31            2.8815     9.0502    -4.5205 C.ar    
  32 C32            2.7838     9.7239    -3.3184 C.ar    
  33 N33            1.5621     7.4770     0.0631 N.am    
  34 C34            2.8691     8.1390     0.1739 C.3     
  35 C35            3.3623     8.4935    -1.2330 C.3     
  36 C36            1.0006     8.5072    -2.0768 C.3     
  37 C37            0.4872     8.1517    -0.6773 C.3     
  38 C38            4.3112    11.6936    -6.7010 C.1     
  39 N39            4.7241    12.2252    -7.6161 N.1     
  40 H40            1.6336     0.3014    -2.6483 H       
  41 H41            1.6244    -2.1328    -3.0419 H       
  42 H42           -1.9273    -0.1881    -0.2943 H       
  43 H43           -1.9087     1.6482    -0.1148 H       
  44 H44           -0.8706    -4.3654    -1.7119 H       
  45 H45            0.8587    -4.0113    -3.9167 H       
  46 H46            1.8508    -4.2514    -2.4585 H       
  47 H47            1.4609    -6.4192    -3.5272 H       
  48 H48            0.5657    -6.3588    -1.9899 H       
  49 H49           -0.1142    -8.0864    -4.3789 H       
  50 H50           -1.0094    -8.0261    -2.8416 H       
  51 H51           -1.8479    -7.6832    -4.3738 H       
  52 H52           -3.2673     6.1513     0.4877 H       
  53 H53           -1.1289     7.3165     0.8242 H       
  54 H54            0.9770     3.6744    -0.0042 H       
  55 H55           -4.0099     3.1483     0.7933 H       
  56 H56           -4.4077     4.2718    -0.5288 H       
  57 H57           -3.5390     2.7581    -0.8783 H       
  58 H58            2.5100    12.4848    -1.7801 H       
  59 H59            3.8936    11.4867    -1.2458 H       
  60 H60            4.0028    12.7304    -4.2548 H       
  61 H61            3.4576     9.1627    -6.5743 H       
  62 H62            2.5651     8.0198    -4.5880 H       
  63 H63            2.7691     9.0486     0.7662 H       
  64 H64            3.5806     7.4655     0.6517 H       
  65 H65            3.5564     7.5781    -1.7919 H       
  66 H66            4.2798     9.0774    -1.1604 H       
  67 H67            0.2506     9.1010    -2.5994 H       
  68 H68            1.1951     7.5922    -2.6362 H       
  69 H69           -0.3720     7.4863    -0.7614 H       
  70 H70            0.1973     9.0618    -0.1523 H       
@<TRIPOS>BOND
   1    1    2 1
   2    1    8 2
   3    1    9 am
   4    2    3 ar
   5    2    7 ar
   6    3    4 ar
   7    3   40 1
   8    4    5 ar
   9    4   41 1
  10    5    6 ar
  11    5   10 1
  12    6    7 ar
  13    7   42 1
  14    9   15 1
  15    9   43 1
  16   10   11 1
  17   10   44 1
  18   11   12 1
  19   11   45 1
  20   11   46 1
  21   12   13 1
  22   12   47 1
  23   12   48 1
  24   13   14 1
  25   14   49 1
  26   14   50 1
  27   14   51 1
  28   15   16 ar
  29   15   20 ar
  30   16   17 ar
  31   16   21 1
  32   17   18 ar
  33   17   52 1
  34   18   19 ar
  35   18   53 1
  36   19   20 ar
  37   19   22 1
  38   20   54 1
  39   21   55 1
  40   21   56 1
  41   21   57 1
  42   22   23 2
  43   22   33 am
  44   24   25 1
  45   24   32 1
  46   24   35 1
  47   24   36 1
  48   25   26 1
  49   26   27 1
  50   26   58 1
  51   26   59 1
  52   27   28 ar
  53   27   32 ar
  54   28   29 ar
  55   28   60 1
  56   29   30 ar
  57   29   38 1
  58   30   31 ar
  59   30   61 1
  60   31   32 ar
  61   31   62 1
  62   33   34 1
  63   33   37 1
  64   34   35 1
  65   34   63 1
  66   34   64 1
  67   35   65 1
  68   35   66 1
  69   36   37 1
  70   36   67 1
  71   36   68 1
  72   37   69 1
  73   37   70 1
  74   38   39 3

#	End of record

