#	Name: ASD02770014
#	Creating user name:	WinNT
#	Creation time:	15. 06. 2019 20:26

#	Modifying user name:	WinNT
#	Modification time:	15. 06. 2019 20:26

#	Program:	/corina/corina34_cracker 3.40 0067  02.08.2006

@<TRIPOS>MOLECULE
ASD02770014
  55   57    0    0    0
SMALL
NO_CHARGES


@<TRIPOS>ATOM
   1 C1            -0.0184     1.5028     0.0103 C.2     
   2 C2             0.0021    -0.0041     0.0020 C.3     
   3 O3             1.0236     2.1234     0.0037 O.2     
   4 N4            -1.1946     2.1607     0.0195 N.am    
   5 O5             1.3556    -0.4620    -0.0134 O.3     
   6 C6             1.5521    -1.8079    -0.0225 C.ar    
   7 C7             1.6410    -2.4891    -1.2270 C.ar    
   8 C8             1.8408    -3.8579    -1.2339 C.ar    
   9 C9             1.9517    -4.5492    -0.0417 C.ar    
  10 C10            1.8635    -3.8757     1.1622 C.ar    
  11 C11            1.6700    -2.5034     1.1765 C.ar    
  12 O12            1.5895    -1.8389     2.3603 O.3     
  13 C13            1.7194    -2.6175     3.5515 C.3     
  14 Cl14           1.5011    -1.6245    -2.7258 Cl      
  15 C15            2.1688    -6.0404    -0.0547 C.3     
  16 N16            3.6099    -6.3253    -0.0707 N.3     
  17 C17            3.8602    -7.7727    -0.0837 C.3     
  18 C18            5.3684    -8.0293    -0.1001 C.3     
  19 C19            5.6292    -9.5369    -0.1137 C.3     
  20 C20            4.9934   -10.1532    -1.3614 C.3     
  21 C21            3.4852    -9.8966    -1.3450 C.3     
  22 C22            2.8734   -10.5313    -0.0945 C.3     
  23 C23            3.5092    -9.9149     1.1533 C.3     
  24 C24            3.2485    -8.4074     1.1668 C.3     
  25 C25            5.0175   -10.1715     1.1369 C.3     
  26 C26            3.2244    -8.3891    -1.3315 C.3     
  27 H27           -0.4983    -0.3791     0.8948 H       
  28 H28           -0.5153    -0.3696    -0.8850 H       
  29 H29           -2.0280     1.6644     0.0207 H       
  30 H30           -1.2077     3.1306     0.0248 H       
  31 H31            1.9100    -4.3877    -2.1725 H       
  32 H32            1.9497    -4.4184     2.0920 H       
  33 H33            0.9298    -3.3683     3.5827 H       
  34 H34            2.6910    -3.1117     3.5584 H       
  35 H35            1.6366    -1.9667     4.4219 H       
  36 H36            1.7213    -6.4805     0.8364 H       
  37 H37            1.7042    -6.4674    -0.9434 H       
  38 H38            4.0591    -5.8736    -0.8531 H       
  39 H39            5.8043    -7.5772    -0.9910 H       
  40 H40            5.8214    -7.5902     0.7888 H       
  41 H41            6.7037    -9.7197    -0.1254 H       
  42 H42            5.4292    -9.7011    -2.2524 H       
  43 H43            5.1792   -11.2272    -1.3711 H       
  44 H44            3.0322   -10.3357    -2.2339 H       
  45 H45            1.7989   -10.3485    -0.0828 H       
  46 H46            3.0592   -11.6053    -0.1041 H       
  47 H47            3.0734   -10.3671     2.0442 H       
  48 H48            3.7014    -7.9683     2.0557 H       
  49 H49            2.1740    -8.2246     1.1785 H       
  50 H50            5.2032   -11.2455     1.1272 H       
  51 H51            5.4704    -9.7325     2.0258 H       
  52 H52            2.1499    -8.2063    -1.3198 H       
  53 H53            3.6602    -7.9369    -2.2224 H       
  54 Cl54          11.7037     8.1306     9.4219 Cl      
  55 H55           11.7037     9.5006     9.4219 H       
@<TRIPOS>BOND
   1    1    2 1
   2    1    3 2
   3    1    4 am
   4    2    5 1
   5    2   27 1
   6    2   28 1
   7    4   29 1
   8    4   30 1
   9    5    6 1
  10    6    7 ar
  11    6   11 ar
  12    7    8 ar
  13    7   14 1
  14    8    9 ar
  15    8   31 1
  16    9   10 ar
  17    9   15 1
  18   10   11 ar
  19   10   32 1
  20   11   12 1
  21   12   13 1
  22   13   33 1
  23   13   34 1
  24   13   35 1
  25   15   16 1
  26   15   36 1
  27   15   37 1
  28   16   17 1
  29   16   38 1
  30   17   18 1
  31   17   24 1
  32   17   26 1
  33   18   19 1
  34   18   39 1
  35   18   40 1
  36   19   20 1
  37   19   25 1
  38   19   41 1
  39   20   21 1
  40   20   42 1
  41   20   43 1
  42   21   22 1
  43   21   26 1
  44   21   44 1
  45   22   23 1
  46   22   45 1
  47   22   46 1
  48   23   24 1
  49   23   25 1
  50   23   47 1
  51   24   48 1
  52   24   49 1
  53   25   50 1
  54   25   51 1
  55   26   52 1
  56   26   53 1
  57   54   55 1

#	End of record

