#	Name: ASD01913966
#	Creating user name:	WinNT
#	Creation time:	15. 06. 2019 20:02

#	Modifying user name:	WinNT
#	Modification time:	15. 06. 2019 20:02

#	Program:	/corina/corina34_cracker 3.40 0067  02.08.2006

@<TRIPOS>MOLECULE
ASD01913966
  44   47    0    0    0
SMALL
NO_CHARGES


@<TRIPOS>ATOM
   1 C1            -0.0160     1.3800     0.0102 C.ar    
   2 C2             0.0028    -0.0023    -0.0038 C.ar    
   3 N3             1.1457    -0.6613    -0.0018 N.ar    
   4 C4             2.3060    -0.0290     0.0153 C.ar    
   5 C5             2.3670     1.3702    -0.0067 C.ar    
   6 C6             1.1811     2.0825     0.0079 C.ar    
   7 C7             3.5914    -0.7528     0.0738 C.2     
   8 C8             4.7567    -0.0862     0.3764 C.2     
   9 C9             4.7910     1.3828     0.6833 C.3     
  10 C10            3.6808     2.0937    -0.0907 C.3     
  11 N11            3.9155    -2.0459    -0.1245 N.pl3   
  12 N12            5.1888    -2.2018     0.0217 N.2     
  13 C13            5.7662    -1.0490     0.3267 C.2     
  14 C14            7.2060    -0.8249     0.5680 C.2     
  15 C15            2.9672    -3.1125    -0.4551 C.3     
  16 N16            8.0715    -1.8548     0.4854 N.am    
  17 C17            9.4404    -1.6257     0.6062 C.ar    
  18 N18            9.8916    -0.3853     0.7046 N.ar    
  19 C19           11.1797    -0.1246     0.8209 C.ar    
  20 C20           12.1093    -1.1452     0.8438 C.ar    
  21 C21           11.6772    -2.4608     0.7432 C.ar    
  22 C22           10.3198    -2.7027     0.6280 C.ar    
  23 O23            7.6105     0.2885     0.8410 O.2     
  24 C24           11.6423     1.3055     0.9297 C.3     
  25 C25           -1.2968    -0.7650    -0.0211 C.3     
  26 H26           -0.9569     1.9102     0.0183 H       
  27 H27            1.1866     3.1625     0.0167 H       
  28 H28            4.6421     1.5339     1.7524 H       
  29 H29            5.7577     1.7925     0.3902 H       
  30 H30            3.9745     2.1707    -1.1376 H       
  31 H31            3.5567     3.0983     0.3135 H       
  32 H32            2.8696    -3.1891    -1.5380 H       
  33 H33            3.3311    -4.0590    -0.0553 H       
  34 H34            1.9954    -2.8830    -0.0181 H       
  35 H35            7.7412    -2.7555     0.3419 H       
  36 H36           13.1618    -0.9224     0.9387 H       
  37 H37           12.3842    -3.2770     0.7582 H       
  38 H38            9.9490    -3.7139     0.5478 H       
  39 H39           11.6718     1.5990     1.9791 H       
  40 H40           12.6389     1.3988     0.4982 H       
  41 H41           10.9508     1.9530     0.3907 H       
  42 H42           -1.6027    -0.9384    -1.0528 H       
  43 H43           -1.1635    -1.7216     0.4840 H       
  44 H44           -2.0644    -0.1865     0.4931 H       
@<TRIPOS>BOND
   1    1    2 ar
   2    1    6 ar
   3    1   26 1
   4    2    3 ar
   5    2   25 1
   6    3    4 ar
   7    4    5 ar
   8    4    7 1
   9    5    6 ar
  10    5   10 1
  11    6   27 1
  12    7    8 2
  13    7   11 1
  14    8    9 1
  15    8   13 1
  16    9   10 1
  17    9   28 1
  18    9   29 1
  19   10   30 1
  20   10   31 1
  21   11   12 1
  22   11   15 1
  23   12   13 2
  24   13   14 1
  25   14   16 am
  26   14   23 2
  27   15   32 1
  28   15   33 1
  29   15   34 1
  30   16   17 1
  31   16   35 1
  32   17   18 ar
  33   17   22 ar
  34   18   19 ar
  35   19   20 ar
  36   19   24 1
  37   20   21 ar
  38   20   36 1
  39   21   22 ar
  40   21   37 1
  41   22   38 1
  42   24   39 1
  43   24   40 1
  44   24   41 1
  45   25   42 1
  46   25   43 1
  47   25   44 1

#	End of record

