#	Name: ASD07932127
#	Creating user name:	WinNT
#	Creation time:	15. 06. 2019 21:14

#	Modifying user name:	WinNT
#	Modification time:	15. 06. 2019 21:14

#	Program:	/corina/corina34_cracker 3.40 0067  02.08.2006

@<TRIPOS>MOLECULE
ASD07932127
  56   58    0    0    0
SMALL
NO_CHARGES


@<TRIPOS>ATOM
   1 N1            -0.0142     1.4462     0.0288 N.pl3   
   2 C2             0.0009    -0.0204     0.0211 C.3     
   3 C3             0.7671    -0.5250     1.2518 C.3     
   4 S4             2.4325     0.2099     1.2287 S.o2    
   5 N5             2.1159     1.8289     0.9938 N.am    
   6 C6             1.1750     2.1461     0.0245 C.2     
   7 C7             2.7974     2.8662     1.7722 C.3     
   8 N8             1.4069     3.0741    -0.8610 N.2     
   9 O9             3.0300     0.1456     2.5163 O.2     
  10 O10            3.1432    -0.1880     0.0643 O.2     
  11 C11           -1.4136    -0.5385     0.0616 C.ar    
  12 C12            0.6919    -0.5175    -1.2502 C.3     
  13 C13           -2.4675     0.3430     0.1997 C.ar    
  14 C14           -3.7711    -0.1350     0.2370 C.ar    
  15 C15           -4.0115    -1.4988     0.1353 C.ar    
  16 C16           -2.9543    -2.3771    -0.0027 C.ar    
  17 C17           -1.6560    -1.8979    -0.0453 C.ar    
  18 N18           -4.8406     0.7565     0.3773 N.am    
  19 C19           -6.0110     0.5079    -0.2432 C.2     
  20 O20           -6.1081    -0.4373    -1.0018 O.2     
  21 C21           -7.1757     1.3839    -0.0016 C.ar    
  22 C22           -8.3860     1.1202    -0.6484 C.ar    
  23 F23           -0.6235    -2.7585    -0.1808 F       
  24 C24           -9.4711     1.9508    -0.4122 C.ar    
  25 C25           -9.3092     3.0184     0.4638 C.ar    
  26 C26           -8.0717     3.2191     1.0724 C.ar    
  27 N27           -7.0641     2.4121     0.8329 N.ar    
  28 O28          -10.3450     3.8563     0.7231 O.3     
  29 C29          -10.0991     4.9293     1.6342 C.3     
  30 F30           -8.4973     0.0710    -1.4923 F       
  31 C31          -11.3734     5.7598     1.7999 C.3     
  32 O32          -12.3846     4.9622     2.4192 O.3     
  33 C33          -13.6225     5.6469     2.6211 C.3     
  34 H34           -0.8587     1.9233     0.0329 H       
  35 H35            0.2446    -0.2227     2.1593 H       
  36 H36            0.8444    -1.6117     1.2163 H       
  37 H37            3.7101     3.1661     1.2573 H       
  38 H38            2.1408     3.7295     1.8804 H       
  39 H39            3.0483     2.4747     2.7580 H       
  40 H40            2.2487     3.5560    -0.8494 H       
  41 H41            1.7155    -0.1438    -1.2773 H       
  42 H42            0.7028    -1.6075    -1.2553 H       
  43 H43            0.1497    -0.1555    -2.1237 H       
  44 H44           -2.2783     1.4033     0.2790 H       
  45 H45           -5.0243    -1.8726     0.1644 H       
  46 H46           -3.1409    -3.4379    -0.0815 H       
  47 H47           -4.7397     1.5533     0.9211 H       
  48 H48          -10.4194     1.7729    -0.8975 H       
  49 H49           -7.9410     4.0470     1.7536 H       
  50 H50           -9.8013     4.5239     2.6011 H       
  51 H51           -9.3016     5.5617     1.2441 H       
  52 H52          -11.1626     6.6281     2.4241 H       
  53 H53          -11.7208     6.0914     0.8214 H       
  54 H54          -14.3368     4.9739     3.0953 H       
  55 H55          -13.4583     6.5129     3.2623 H       
  56 H56          -14.0165     5.9762     1.6596 H       
@<TRIPOS>BOND
   1    1    2 1
   2    1    6 1
   3    1   34 1
   4    2    3 1
   5    2   11 1
   6    2   12 1
   7    3    4 1
   8    3   35 1
   9    3   36 1
  10    4    5 am
  11    4    9 2
  12    4   10 2
  13    5    6 1
  14    5    7 1
  15    6    8 2
  16    7   37 1
  17    7   38 1
  18    7   39 1
  19    8   40 1
  20   11   13 ar
  21   11   17 ar
  22   12   41 1
  23   12   42 1
  24   12   43 1
  25   13   14 ar
  26   13   44 1
  27   14   15 ar
  28   14   18 1
  29   15   16 ar
  30   15   45 1
  31   16   17 ar
  32   16   46 1
  33   17   23 1
  34   18   19 am
  35   18   47 1
  36   19   20 2
  37   19   21 1
  38   21   22 ar
  39   21   27 ar
  40   22   24 ar
  41   22   30 1
  42   24   25 ar
  43   24   48 1
  44   25   26 ar
  45   25   28 1
  46   26   27 ar
  47   26   49 1
  48   28   29 1
  49   29   31 1
  50   29   50 1
  51   29   51 1
  52   31   32 1
  53   31   52 1
  54   31   53 1
  55   32   33 1
  56   33   54 1
  57   33   55 1
  58   33   56 1

#	End of record

