#	Name: ASD01814637
#	Creating user name:	WinNT
#	Creation time:	15. 06. 2019 19:32

#	Modifying user name:	WinNT
#	Modification time:	15. 06. 2019 19:32

#	Program:	/corina/corina34_cracker 3.40 0067  02.08.2006

@<TRIPOS>MOLECULE
ASD01814637
  50   54    0    0    0
SMALL
NO_CHARGES


@<TRIPOS>ATOM
   1 C1            -0.0169     1.3972     0.0097 C.2     
   2 C2             0.0021    -0.0041     0.0020 C.2     
   3 C3             1.1986    -0.6593    -0.0129 C.2     
   4 C4             2.3918     0.0821    -0.0204 C.2     
   5 N5             2.3437     1.4497    -0.0122 N.am    
   6 C6             1.1421     2.0937     0.0024 C.2     
   7 C7             3.6227    -0.5889    -0.0356 C.2     
   8 C8             4.7877     0.1218    -0.0425 C.2     
   9 C9             4.7345     1.5280    -0.0346 C.2     
  10 C10            3.4812     2.1736    -0.0189 C.2     
  11 O11            3.4258     3.3917    -0.0123 O.2     
  12 C12            5.9703     2.3140    -0.0413 C.2     
  13 O13            5.9124     3.6618    -0.0337 O.3     
  14 O14            7.0487     1.7516    -0.0537 O.2     
  15 C15            3.6593    -2.0954    -0.0439 C.3     
  16 N16            3.7787    -2.5747    -1.4274 N.3     
  17 C17            4.0557    -4.0213    -1.4630 C.3     
  18 C18            4.0743    -4.4583    -2.9065 C.2     
  19 C19            3.5391    -3.6839    -3.9475 C.2     
  20 C20            2.8897    -2.3409    -3.7084 C.3     
  21 C21            2.5829    -2.2322    -2.2081 C.3     
  22 C22            4.5739    -5.5984    -3.4467 C.2     
  23 N23            4.3571    -5.5353    -4.7939 N.pl3   
  24 N24            3.7078    -4.3214    -5.0677 N.2     
  25 C25            5.2310    -6.7031    -2.7137 C.ar    
  26 C26            4.8962    -8.0276    -2.9967 C.ar    
  27 C27            5.5116    -9.0537    -2.3105 C.ar    
  28 C28            6.4606    -8.7709    -1.3412 C.ar    
  29 C29            6.7967    -7.4571    -1.0563 C.ar    
  30 C30            6.1916    -6.4239    -1.7412 C.ar    
  31 F31            7.0598    -9.7795    -0.6713 F       
  32 H32           -0.9605     1.9226     0.0170 H       
  33 H33           -0.9233    -0.5609     0.0082 H       
  34 H34            1.2282    -1.7389    -0.0187 H       
  35 H35            1.1156     3.1733     0.0087 H       
  36 H36            5.7393    -0.3889    -0.0536 H       
  37 H37            6.7544     4.1373    -0.0385 H       
  38 H38            4.5153    -2.4412     0.5356 H       
  39 H39            2.7412    -2.4836     0.3971 H       
  40 H40            5.0241    -4.2221    -1.0048 H       
  41 H41            3.2747    -4.5590    -0.9254 H       
  42 H42            3.5704    -1.5431    -4.0053 H       
  43 H43            1.9647    -2.2706    -4.2807 H       
  44 H44            1.7752    -2.9182    -1.9531 H       
  45 H45            2.2776    -1.2124    -1.9740 H       
  46 H46            4.6076    -6.2090    -5.4452 H       
  47 H47            4.1561    -8.2490    -3.7515 H       
  48 H48            5.2531   -10.0794    -2.5289 H       
  49 H49            7.5369    -7.2419    -0.3000 H       
  50 H50            6.4542    -5.4003    -1.5185 H       
@<TRIPOS>BOND
   1    1    2 1
   2    1    6 2
   3    1   32 1
   4    2    3 2
   5    2   33 1
   6    3    4 1
   7    3   34 1
   8    4    5 1
   9    4    7 2
  10    5    6 1
  11    5   10 am
  12    6   35 1
  13    7    8 1
  14    7   15 1
  15    8    9 2
  16    8   36 1
  17    9   10 1
  18    9   12 1
  19   10   11 2
  20   12   13 1
  21   12   14 2
  22   13   37 1
  23   15   16 1
  24   15   38 1
  25   15   39 1
  26   16   17 1
  27   16   21 1
  28   17   18 1
  29   17   40 1
  30   17   41 1
  31   18   19 1
  32   18   22 2
  33   19   20 1
  34   19   24 2
  35   20   21 1
  36   20   42 1
  37   20   43 1
  38   21   44 1
  39   21   45 1
  40   22   23 1
  41   22   25 1
  42   23   24 1
  43   23   46 1
  44   25   26 ar
  45   25   30 ar
  46   26   27 ar
  47   26   47 1
  48   27   28 ar
  49   27   48 1
  50   28   29 ar
  51   28   31 1
  52   29   30 ar
  53   29   49 1
  54   30   50 1

#	End of record

