#	Name: ASD01150986
#	Creating user name:	WinNT
#	Creation time:	15. 06. 2019 19:05

#	Modifying user name:	WinNT
#	Modification time:	15. 06. 2019 19:05

#	Program:	/corina/corina34_cracker 3.40 0067  02.08.2006

@<TRIPOS>MOLECULE
ASD01150986
  50   52    0    0    0
SMALL
NO_CHARGES


@<TRIPOS>ATOM
   1 C1            -0.0285     1.5003     0.4953 C.2     
   2 N2             0.0418     0.1965     0.4315 N.2     
   3 C3            -1.2177    -0.2999     0.3046 C.2     
   4 C4            -2.0794     0.7860     0.2937 C.2     
   5 O5            -1.3162     1.8862     0.4185 O.3     
   6 C6             1.1274     2.4106     0.6365 C.ar    
   7 N7            -3.4550     0.7454     0.1811 N.am    
   8 C8            -1.5928    -1.7134     0.1990 C.2     
   9 O9            -2.7631    -2.0254     0.0886 O.2     
  10 O10           -0.6399    -2.6677     0.2243 O.3     
  11 C11           -1.0840    -4.0458     0.1150 C.3     
  12 C12            0.1286    -4.9776     0.1623 C.3     
  13 C13           -4.1656     1.8907     0.1854 C.2     
  14 C14           -5.6539     1.8550    -0.0485 C.3     
  15 O15           -3.6072     2.9499     0.3776 O.2     
  16 C16            2.4217     1.8935     0.7122 C.ar    
  17 C17            3.4962     2.7486     0.8439 C.ar    
  18 C18            3.2931     4.1160     0.9010 C.ar    
  19 C19            2.0128     4.6351     0.8265 C.ar    
  20 C20            0.9300     3.7914     0.6889 C.ar    
  21 C21           -6.3617     1.6004     1.2573 C.ar    
  22 C22           -6.1120     3.1966    -0.6238 C.3     
  23 C23           -5.5071     3.3878    -2.0160 C.3     
  24 C24           -7.1625     0.4831     1.4031 C.ar    
  25 C25           -7.8118     0.2495     2.6009 C.ar    
  26 C26           -7.6599     1.1330     3.6531 C.ar    
  27 C27           -6.8583     2.2498     3.5077 C.ar    
  28 C28           -6.2056     2.4811     2.3113 C.ar    
  29 H29           -3.9100    -0.1073     0.0988 H       
  30 H30           -1.7535    -4.2784     0.9431 H       
  31 H31           -1.6117    -4.1837    -0.8287 H       
  32 H32            0.7981    -4.7449    -0.6658 H       
  33 H33            0.6563    -4.8396     1.1060 H       
  34 H34           -0.2048    -6.0121     0.0803 H       
  35 H35           -5.8920     1.0575    -0.7524 H       
  36 H36            2.5816     0.8263     0.6681 H       
  37 H37            4.4982     2.3498     0.9030 H       
  38 H38            4.1377     4.7811     1.0046 H       
  39 H39            1.8610     5.7034     0.8721 H       
  40 H40           -0.0689     4.1978     0.6306 H       
  41 H41           -7.1996     3.2089    -0.6954 H       
  42 H42           -5.7818     4.0040     0.0298 H       
  43 H43           -4.4231     3.2898    -1.9578 H       
  44 H44           -5.9046     2.6308    -2.6920 H       
  45 H45           -5.7626     4.3792    -2.3902 H       
  46 H46           -7.2811    -0.2072     0.5810 H       
  47 H47           -8.4380    -0.6230     2.7145 H       
  48 H48           -8.1677     0.9509     4.5887 H       
  49 H49           -6.7399     2.9403     4.3297 H       
  50 H50           -5.5794     3.3536     2.1977 H       
@<TRIPOS>BOND
   1    1    2 2
   2    1    6 1
   3    1    5 1
   4    2    3 1
   5    3    4 2
   6    3    8 1
   7    4    5 1
   8    4    7 1
   9    6   16 ar
  10    6   20 ar
  11    7   13 am
  12    7   29 1
  13    8    9 2
  14    8   10 1
  15   10   11 1
  16   11   12 1
  17   11   30 1
  18   11   31 1
  19   12   32 1
  20   12   33 1
  21   12   34 1
  22   13   14 1
  23   13   15 2
  24   14   21 1
  25   14   22 1
  26   14   35 1
  27   16   17 ar
  28   16   36 1
  29   17   18 ar
  30   17   37 1
  31   18   19 ar
  32   18   38 1
  33   19   20 ar
  34   19   39 1
  35   20   40 1
  36   21   24 ar
  37   21   28 ar
  38   22   23 1
  39   22   41 1
  40   22   42 1
  41   23   43 1
  42   23   44 1
  43   23   45 1
  44   24   25 ar
  45   24   46 1
  46   25   26 ar
  47   25   47 1
  48   26   27 ar
  49   26   48 1
  50   27   28 ar
  51   27   49 1
  52   28   50 1

#	End of record

